[Config example4]
network = example4
sim-time-limit = 10s

**.crcMode = "computed"
**.fcsMode = "computed"

**.fileFormat = "pcap"
**.numPcapRecorders = 1
**.pcapRecorder[*].timePrecision = 9
**.tcp.sackSupport = true
**.tcp.tcpAlgorithmClass = "TcpNewReno"
**.tcp.delayedAcksEnabled = false
**.tcp.advertisedWindow = 131072
**.tcp.windowScalingSupport = true
**.tcp.limitedTransmitEnabled = true
**.tcp.sendDataWithFirstAck = false
**.tcp.alignOptions = false
**.tcp.sendMssOption = false
**.tcp.nagleEnabled = false
**.tcp.minRexmitTimeout = 200ms
**.tcp.initialSendSequenceNumber = 0
**.ip.timeToLive = 64
**.ppp.endTxSchedulingPriority = 1000

**.router.ppp[*].queue.typename = "DropTailQueue"
**.router.ppp[*].queue.packetCapacity = 12

*.configurator.config = xml("<config><interface hosts='source' address='10.1.1.1' netmask='255.255.255.0'/><interface hosts='sink' address='10.1.2.2' netmask='255.255.255.0'/><interface hosts='router' address='10.1.x.x' netmask='255.255.255.0'/></config>")

*.source.numApps = 1
*.source.app[0].typename = "TcpSessionApp"
*.source.app[0].sendBytes = 1000000B
*.source.app[0].packetData = 0
*.source.app[0].tOpen = 0s
*.source.app[0].tSend = 0s
*.source.app[0].tClose = 0s
*.source.app[0].connectAddress = "sink"
*.source.app[0].localPort = 49153
*.source.app[0].connectPort = 1000

*.sink.numApps = 1
*.sink.app[0].typename = "TcpServerApp"
*.sink.app[0].listener.localPort = 1000
*.sink.app[0].connection[*].source.typename = "EmptyPacketSource"
