
[General]
sim-time-limit = 0.02s

tkenv-plugin-path = ../../../etc/plugins
**.vector-recording = true
record-eventlog = true

network = BurstTests


*.host_1_H_A.cli.destAddress = "host_1_H_B"
*.host_1_H_B.cli.destAddress = "host_1_H_A"

*.host_1_F_A.cli.destAddress = "host_1_F_B"
*.host_1_F_B.cli.destAddress = "host_1_F_A"

*.host_2_H_A.cli.destAddress = "host_2_H_B"
*.host_2_H_B.cli.destAddress = "host_2_H_A"

*.host_2_F_A.cli.destAddress = "host_2_F_B"
*.host_2_F_B.cli.destAddress = "host_2_F_A"

**.cli.reqLength = 125B       # 1.000 bit
**.cli.respLength = 0B      # no response

*.host_*_A.cli.startTime = 0s
*.host_*_B.cli.startTime = 0s # out of simulation time

*.host_*_F_*.mac.duplexEnabled = true
*.host_*_H_*.mac.duplexEnabled = false

*.host_1_*.mac.frameBursting = false

*.host_*.cli.sendInterval = 0.0009ms       # 1000Mbps 10.000 / speed [ / 2 when halfduplex]

**.mac.address = "auto"
*.host_*.mac.txQueueLimit = 100000
*.host_*.queue.frameCapacity = 10000
