[General]
network = VoipStreamReceiverNode
scheduler-class = "inet::RealTimeScheduler"
cmdenv-express-mode = true
cmdenv-event-banners = true
sim-time-limit = 50s

*.app.localPort = 60001
*.app.resultFile = "results/received.wav"

[Config LoopbackReceiver]

[Config VethReceiver]

*.udp.namespace = "net1"