[General]
network = Ieee80211LevelofDetailShowcase
#abstract-config = true (requires omnet 7)
description = "host1 pinging host0"
sim-time-limit = 1000s
cmdenv-express-mode = true

**.vector-recording = false

**.arp.typename = "GlobalArp"

**.crcMode = "computed"
**.fcsMode = "computed"

**.constraintAreaMinX = 0m
**.constraintAreaMinY = 0m
**.constraintAreaMinZ = 0m
**.constraintAreaMaxX = 2000m
**.constraintAreaMaxY = 400m
**.constraintAreaMaxZ = 0m

# mobility
*.*Host.mobility.typename = "StationaryMobility"
*.*Host.mobility.initFromDisplayString = false
*.*Host.mobility.initialZ = 0m
*.sourceHost.mobility.initialX = 100m
*.sourceHost.mobility.initialY = 200m
*.destinationHost.mobility.initialX = ${distance = 100..1000 step 2}m
*.destinationHost.mobility.initialY = 200m

# application
*.sourceHost.numApps = 1
*.sourceHost.app[0].typename = "UdpApp"
*.sourceHost.app[0].io.destAddress = "destinationHost"
*.sourceHost.app[0].io.destPort = 5000
*.sourceHost.app[0].source.packetLength = 100B
*.sourceHost.app[0].source.packetRepresentation = "bytes"
*.sourceHost.app[0].source.packetData = intuniform(0, 255)
*.sourceHost.app[0].source.productionInterval = 1s

*.destinationHost.numApps = 1
*.destinationHost.app[0].typename = "UdpSink"
*.destinationHost.app[0].localPort = 5000

# network interface
*.*Host.wlan[*].typename = "Ieee80211Interface"
*.*Host.wlan[*].bitrate = ${bitrate = 6, 9, 12, 18, 24, 36, 48, 54}Mbps
*.*Host.wlan[*].mac.**.responseAckFrameBitrate = ${bitrate}Mbps
*.*Host.wlan[*].mac.**.*Retry* = 0
*.*Host.wlan[*].radio.transmitter.power = 0.1mW
*.*Host.wlan[*].radio.receiver.sensitivity = -109dBm
*.*Host.wlan[*].radio.receiver.snirThreshold = 0.1dB
*.*Host.wlan[*].radio.receiver.energyDetection = -90dBm
*.*Host.wlan[*].radio.bandwidth = 20MHz

[Config Default]
*.radioMedium.typename = "Ieee80211ScalarRadioMedium"
*.*Host.wlan[*].radio.typename = "Ieee80211Radio"

[Config Layered]
*.radioMedium.typename = "Ieee80211LayeredDimensionalRadioMedium"
*.*Host.wlan[*].radio.typename = "Ieee80211OfdmRadio"
*.*Host.wlan[*].radio.centerFrequency = 2.412GHz # KLUDGE: to match the frequency of the default model
*.*Host.wlan[*].radio.receiver.channelSpacing = 5MHz
*.*Host.wlan[*].radio.receiver.errorModel.snirOffset = -2dB # represents cross symbol interference due to OFDM lobe overlapping, symbol frequency/time offset mismatch, and symbol frequency/time size mismatch
*.*Host.wlan[*].radio.**.levelOfDetail = ${detail="symbol"}
