[General]
network = VsgSignalWaveShowcase
sim-time-limit = 100s
description = "VSG shader signal wavefront: per-pixel ripples flowing outward, multiple overlapping colour-coded discs that stay lit while sending"

**.arp.typename = "GlobalArp"

# --- traffic: the four spokes send to the hub, and the hub sends back to host1, so all
#     five radios transmit and you get several colour-coded ripple discs at once ---
*.hub.numApps = 2
*.hub.app[0].typename = "UdpSink"
*.hub.app[0].localPort = 1000
*.hub.app[1].typename = "UdpBasicApp"
*.hub.app[1].destAddresses = "host1"
*.hub.app[1].destPort = 2000
*.hub.app[1].messageLength = 2500byte
*.hub.app[1].sendInterval = 1.7s
*.hub.app[1].startTime = uniform(0s, 1s)

*.host1.numApps = 2
*.host1.app[0].typename = "UdpSink"
*.host1.app[0].localPort = 2000
*.host1.app[1].typename = "UdpBasicApp"
*.host1.app[1].destAddresses = "hub"
*.host1.app[1].destPort = 1000
*.host1.app[1].messageLength = 2500byte
*.host1.app[1].sendInterval = 2s
*.host1.app[1].startTime = uniform(0s, 1s)

*.host2.numApps = 1
*.host2.app[0].typename = "UdpBasicApp"
*.host2.app[0].destAddresses = "hub"
*.host2.app[0].destPort = 1000
*.host2.app[0].messageLength = 2500byte
*.host2.app[0].sendInterval = 2.2s
*.host2.app[0].startTime = uniform(0s, 1s)

*.host3.numApps = 1
*.host3.app[0].typename = "UdpBasicApp"
*.host3.app[0].destAddresses = "hub"
*.host3.app[0].destPort = 1000
*.host3.app[0].messageLength = 2500byte
*.host3.app[0].sendInterval = 2.4s
*.host3.app[0].startTime = uniform(0s, 1s)

*.host4.numApps = 1
*.host4.app[0].typename = "UdpBasicApp"
*.host4.app[0].destAddresses = "hub"
*.host4.app[0].destPort = 1000
*.host4.app[0].messageLength = 2500byte
*.host4.app[0].sendInterval = 2.6s
*.host4.app[0].startTime = uniform(0s, 1s)

# --- ad-hoc wlan: enough power to decode across the ~110m spokes (so arrows draw); the disc
#     size is set by the fade below, NOT by this power. Fixed 54 Mbps keeps each transmission
#     ~0.4ms, which -- slowed by signalTransmissionAnimationSpeed -- lights the disc for ~2s. ---
*.host*.wlan[*].radio.transmitter.power = 1mW
*.hub.wlan[*].radio.transmitter.power = 1mW
*.host*.wlan[*].bitrate = 54Mbps
*.hub.wlan[*].bitrate = 54Mbps
*.*.wlan[*].mgmt.typename = "Ieee80211MgmtAdhoc"
*.*.wlan[*].agent.typename = ""
*.radioMedium.maxCommunicationRange = 200m
*.radioMedium.maxInterferenceRange = 200m

# --- host2 drifts slowly around the east side, staying within range of the hub ---
*.host2.mobility.typename = "LinearMobility"
*.host2.mobility.speed = 4mps
*.host2.mobility.initialX = 310m
*.host2.mobility.initialY = 200m
*.host2.mobility.initialMovementHeading = 60deg
*.host2.mobility.constraintAreaMinX = 250m
*.host2.mobility.constraintAreaMinY = 130m
*.host2.mobility.constraintAreaMinZ = 0m
*.host2.mobility.constraintAreaMaxX = 350m
*.host2.mobility.constraintAreaMaxY = 270m
*.host2.mobility.constraintAreaMaxZ = 0m

# --- scene ---
*.visualizer.sceneVisualizer.axisLength = 40m
*.visualizer.sceneVisualizer.sceneMinX = 0m
*.visualizer.sceneVisualizer.sceneMinY = 0m
*.visualizer.sceneVisualizer.sceneMaxX = 400m
*.visualizer.sceneVisualizer.sceneMaxY = 400m
*.visualizer.sceneVisualizer.sceneMinZ = 0m
*.visualizer.sceneVisualizer.sceneMaxZ = 0m

# --- medium visualizer: the shader wavefront ---
*.visualizer.mediumVisualizer.displaySignals = true
*.visualizer.mediumVisualizer.signalWaveShader = true
# Disc size is governed by the fade (not power): signalFadingDistance=18m -> a ~175m disc that
# overlaps the neighbours nicely without blanketing the 400m scene.
*.visualizer.mediumVisualizer.signalFadingDistance = 18m
*.visualizer.mediumVisualizer.signalWaveLength = 35m
# Animation speeds proven by the radiomediumactivity showcase: the wavefront travels 500 m/s (so a
# ~175m disc expands in ~0.35s) and the "while transmitting" window is slowed 4 orders of magnitude
# so the disc STAYS LIT for the whole ~0.4ms transmission (~2s of animation) instead of flashing.
*.visualizer.mediumVisualizer.signalPropagationAnimationSpeed = 500/3e8
*.visualizer.mediumVisualizer.signalTransmissionAnimationSpeed = 50000/3e8
*.visualizer.mediumVisualizer.displaySignalDepartures = true
*.visualizer.mediumVisualizer.displaySignalArrivals = true
*.visualizer.mediumVisualizer.displayCommunicationRanges = true

*.visualizer.dataLinkVisualizer.displayLinks = true
*.visualizer.dataLinkVisualizer.fadeOutTime = 2s

*.visualizer.mobilityVisualizer.displayMovementTrails = true
*.visualizer.mobilityVisualizer.animationSpeed = 1
