<?xml version="1.0" encoding="iso-8859-1"?>
<!-- 
Computer Science Building and campus of the University of Erlangen-Nuremberg, section of the city of Erlangen, Germany as of 2008-04-07
Copyright (C) 2008 Christoph Sommer <christoph.sommer@informatik.uni-erlangen.de>
Based on map data Copyright (C) 2008 OpenStreetMap <http://openstreetmap.org>
Licensed under the Creative Commons Attribution-ShareAlike 2.0 license <http://creativecommons.org/licenses/by-sa/2.0/>
-->
<net version="0.13" xmlns:xsi="http://www.w3.org/2001/XMLSchema-instance" xsi:noNamespaceSchemaLocation="http://sumo.sf.net/xsd/net_file.xsd">

    <location netOffset="-1220299.625000,-6338933.000000" convBoundary="0.000000,0.000000,10671.750000,7104.500000" origBoundary="10.962138,49.566135,11.058004,49.607628" projParameter="!"/>

    <edge id="-10057977" from="21749615" to="82653456" priority="-1" type="residential">
        <lane id="-10057977_0" index="0" speed="13.89" length="252.13" shape="5631.98,6962.61 5637.82,6932.37 5658.13,6901.39 5696.68,6868.85 5719.13,6839.73 5730.38,6802.64 5738.69,6744.93"/>
    </edge>

    <edge id="-10157141" from="83813023" to="17574051" priority="-1" type="service">
        <lane id="-10157141_0" index="0" speed="5.56" length="297.46" shape="6982.58,4707.64 6687.48,4745.03"/>
    </edge>

    <edge id="-10229662" from="12978600" to="84775084" priority="-1" type="secondary">
        <lane id="-10229662_0" index="0" speed="13.89" length="646.95" shape="4551.69,4514.01 4525.90,4444.92 4511.99,4354.71 4463.61,3875.22"/>
    </edge>

    <edge id="-102296670" from="84775109" to="10372760" priority="-1" type="secondary">
        <lane id="-102296670_0" index="0" speed="27.78" length="2.49" shape="4341.40,4760.94 4343.03,4759.06"/>
    </edge>

    <edge id="-102296671" from="84775129" to="84775109" priority="-1" type="secondary">
        <lane id="-102296671_0" index="0" speed="27.78" length="212.61" shape="4347.10,4952.79 4374.80,4924.62 4390.24,4877.07 4370.70,4829.38 4337.12,4790.64 4336.33,4770.35"/>
    </edge>

    <edge id="-10229668" from="10180245" to="84775129" priority="-1" type="secondary">
        <lane id="-10229668_0" index="0" speed="27.78" length="43.00" shape="4337.34,5003.44 4343.83,4960.93"/>
    </edge>

    <edge id="-10229669" from="84775129" to="10301533" priority="-1" type="secondary">
        <lane id="-10229669_0" index="0" speed="27.78" length="27.83" shape="4340.99,4957.58 4313.16,4957.24"/>
    </edge>

    <edge id="-10229671" from="26449626" to="84775109" priority="-1" type="secondary">
        <lane id="-10229671_0" index="0" speed="27.78" length="7.16" shape="4335.03,4753.27 4337.22,4760.08"/>
    </edge>

    <edge id="-10419402" from="36814198" to="39537829" priority="-1" type="residential">
        <lane id="-10419402_0" index="0" speed="13.89" length="463.54" shape="7157.87,1489.67 7242.69,1387.70 6990.56,1173.39"/>
    </edge>

    <edge id="-104194031" from="39537846" to="39537774" priority="-1" type="residential">
        <lane id="-104194031_0" index="0" speed="13.89" length="283.36" shape="7140.69,831.22 7325.50,616.42"/>
    </edge>

    <edge id="-104194032" from="39537829" to="39537846" priority="-1" type="residential">
        <lane id="-104194032_0" index="0" speed="13.89" length="376.22" shape="6990.04,1166.44 7022.97,1128.60 7055.59,1056.66 7053.84,946.16 7073.11,903.07 7134.48,838.12"/>
    </edge>

    <edge id="-104251280" from="89119479" to="89119475" priority="-1" type="residential">
        <lane id="-104251280_0" index="0" speed="13.89" length="80.85" shape="6994.24,1474.38 7052.31,1418.12"/>
    </edge>

    <edge id="-104251281" from="17574076" to="89119479" priority="-1" type="residential">
        <lane id="-104251281_0" index="0" speed="13.89" length="108.34" shape="6899.13,1543.49 6987.04,1480.17"/>
    </edge>

    <edge id="-10425130" from="89119501" to="89119484" priority="-1" type="residential">
        <lane id="-10425130_0" index="0" speed="13.89" length="347.12" shape="6932.48,2067.92 6944.22,2170.34 7088.44,2169.36 7102.56,2070.55"/>
    </edge>

    <edge id="-10425131" from="89119510" to="89119504" priority="-1" type="residential">
        <lane id="-10425131_0" index="0" speed="13.89" length="122.68" shape="6962.25,1937.30 6939.64,2057.88"/>
    </edge>

    <edge id="-105734140" from="15920225" to="12247705" priority="-1" type="secondary">
        <lane id="-105734140_0" index="0" speed="13.89" length="411.48" shape="4816.50,3055.90 4758.88,3291.30 4738.56,3459.20"/>
    </edge>

    <edge id="-105734141" from="18233560" to="15920225" priority="-1" type="secondary">
        <lane id="-105734141_0" index="0" speed="13.89" length="122.30" shape="4848.08,2927.08 4818.96,3045.86"/>
    </edge>

    <edge id="-105734142" from="21968155" to="18233560" priority="-1" type="secondary">
        <lane id="-105734142_0" index="0" speed="13.89" length="180.85" shape="4865.24,2737.99 4856.39,2893.75 4850.36,2917.85"/>
    </edge>

    <edge id="-105734143" from="12247702" to="21968155" priority="-1" type="secondary">
        <lane id="-105734143_0" index="0" speed="13.89" length="179.01" shape="4858.99,2549.72 4861.52,2618.23 4865.37,2728.62"/>
    </edge>

    <edge id="-10573415" from="10180300" to="91650092" priority="-1" type="residential">
        <lane id="-10573415_0" index="0" speed="13.89" length="94.85" shape="4799.72,5010.11 4821.09,4917.70"/>
    </edge>

    <edge id="-10634640" from="19861401" to="93578262" priority="-1" type="service">
        <lane id="-10634640_0" index="0" speed="5.56" length="125.82" shape="4785.37,5087.62 4908.13,5115.17"/>
    </edge>

    <edge id="-106458910" from="93900521" to="93900513" priority="-1" type="residential">
        <lane id="-106458910_0" index="0" speed="13.89" length="61.70" shape="4325.58,3922.91 4365.69,3936.99 4382.32,3946.57"/>
    </edge>

    <edge id="-106458911+106458912" from="15920406" to="93900521" priority="0">
        <lane id="-106458911+106458912_0" index="0" speed="13.89" length="88.94" shape="4236.67,3957.65 4316.01,3917.46"/>
        <lane id="-106458911+106458912_1" index="1" speed="13.89" length="88.94" shape="4238.17,3960.60 4317.50,3920.40"/>
    </edge>

    <edge id="-106458912+106458911" from="93900521" to="15920406" priority="0">
        <lane id="-106458912+106458911_0" index="0" speed="13.89" length="88.94" shape="4320.48,3926.29 4241.15,3966.48"/>
        <lane id="-106458912+106458911_1" index="1" speed="13.89" length="88.94" shape="4318.99,3923.35 4239.66,3963.54"/>
    </edge>

    <edge id="-10651340" from="94032447" to="10301534" priority="-1" type="service">
        <lane id="-10651340_0" index="0" speed="5.56" length="35.94" shape="4207.71,4887.13 4198.33,4921.83"/>
    </edge>

    <edge id="-10651344" from="94032454" to="94032447" priority="-1" type="service">
        <lane id="-10651344_0" index="0" speed="5.56" length="27.33" shape="4238.43,4888.38 4211.34,4884.72"/>
    </edge>

    <edge id="-10651347" from="94032503" to="94032447" priority="-1" type="service">
        <lane id="-10651347_0" index="0" speed="5.56" length="251.80" shape="4053.55,4697.94 4082.13,4776.32 4117.55,4841.22 4203.99,4879.26"/>
    </edge>

    <edge id="-10712011" from="95087512" to="95087508" priority="-1" type="residential">
        <lane id="-10712011_0" index="0" speed="13.89" length="127.86" shape="7162.87,1941.33 7136.98,2066.55"/>
    </edge>

    <edge id="-10712013" from="95087518" to="95087515" priority="-1" type="residential">
        <lane id="-10712013_0" index="0" speed="13.89" length="122.47" shape="7061.13,1934.78 7040.53,2055.50"/>
    </edge>

    <edge id="-11534381" from="10298169" to="10298168" priority="-1" type="service">
        <lane id="-11534381_0" index="0" speed="5.56" length="58.25" shape="4508.52,5113.51 4496.62,5170.53"/>
    </edge>

    <edge id="-115343830" from="10530346" to="10298169" priority="-1" type="residential">
        <lane id="-115343830_0" index="0" speed="13.89" length="148.95" shape="4547.92,4959.96 4510.69,5104.18"/>
    </edge>

    <edge id="-115343831" from="10298172" to="10530346" priority="-1" type="residential">
        <lane id="-115343831_0" index="0" speed="13.89" length="94.45" shape="4573.98,4859.21 4550.33,4950.65"/>
    </edge>

    <edge id="-115343832" from="10372763" to="10298172" priority="-1" type="residential">
        <lane id="-115343832_0" index="0" speed="13.89" length="47.28" shape="4584.92,4803.16 4576.13,4849.62"/>
    </edge>

    <edge id="-115343870" from="15919722" to="10110486" priority="-1" type="residential">
        <lane id="-115343870_0" index="0" speed="13.89" length="249.02" shape="5955.82,4308.86 5830.96,4330.12 5712.15,4359.40"/>
    </edge>

    <edge id="-115343871" from="15919732" to="15919722" priority="-1" type="residential">
        <lane id="-115343871_0" index="0" speed="13.89" length="167.25" shape="6131.46,4292.88 5964.87,4307.71"/>
    </edge>

    <edge id="-12159709" from="19755451" to="110240097" priority="-1" type="service">
        <lane id="-12159709_0" index="0" speed="5.56" length="250.81" shape="5797.02,1833.39 5765.15,1906.62 5738.72,1976.77 5643.22,1967.13"/>
    </edge>

    <edge id="-12373744" from="112420587" to="112420581" priority="-1" type="primary">
        <lane id="-12373744_0" index="0" speed="27.78" length="44.16" shape="566.58,1381.88 609.91,1390.37"/>
    </edge>

    <edge id="-12373745" from="13117280" to="112420587" priority="-1" type="primary">
        <lane id="-12373745_0" index="0" speed="27.78" length="443.25" shape="130.05,1304.88 332.78,1342.37 566.55,1381.88"/>
    </edge>

    <edge id="-123737470" from="10298175" to="17062276" priority="-1" type="residential">
        <lane id="-123737470_0" index="0" speed="13.89" length="124.78" shape="4438.43,5429.90 4560.41,5456.20"/>
    </edge>

    <edge id="-123737471" from="10301535" to="10298175" priority="-1" type="residential">
        <lane id="-123737471_0" index="0" speed="13.89" length="49.37" shape="4380.44,5418.80 4428.95,5427.98"/>
    </edge>

    <edge id="-126931430" from="15717195" to="10530348" priority="-1" type="residential">
        <lane id="-126931430_0" index="0" speed="13.89" length="101.05" shape="5251.38,5010.33 5227.09,5108.42"/>
    </edge>

    <edge id="-126931431" from="10372758" to="15717195" priority="-1" type="residential">
        <lane id="-126931431_0" index="0" speed="13.89" length="228.98" shape="5308.55,4777.70 5253.91,5000.07"/>
    </edge>

    <edge id="-126931432" from="12978994" to="10372758" priority="-1" type="residential">
        <lane id="-126931432_0" index="0" speed="13.89" length="191.75" shape="5356.84,4581.02 5311.12,4767.24"/>
    </edge>

    <edge id="-135241960" from="124285483" to="26118298" priority="-1" type="residential">
        <lane id="-135241960_0" index="0" speed="13.89" length="29.51" shape="7089.67,4423.90 7093.48,4453.16"/>
    </edge>

    <edge id="-135241961" from="28990941" to="124285483" priority="-1" type="residential">
        <lane id="-135241961_0" index="0" speed="13.89" length="217.97" shape="7060.75,4201.51 7088.85,4417.66"/>
    </edge>

    <edge id="-135241962" from="28990931" to="28990941" priority="-1" type="residential">
        <lane id="-135241962_0" index="0" speed="13.89" length="237.40" shape="7033.90,3956.04 7059.62,4192.05"/>
    </edge>

    <edge id="-135241963" from="28990928" to="28990931" priority="-1" type="residential">
        <lane id="-135241963_0" index="0" speed="13.89" length="187.37" shape="7011.14,3760.34 7022.14,3873.29 7032.68,3946.42"/>
    </edge>

    <edge id="-143655660" from="139775050" to="26118286" priority="-1" type="service">
        <lane id="-143655660_0" index="0" speed="5.56" length="59.22" shape="7109.19,4587.86 7103.15,4528.95"/>
    </edge>

    <edge id="-143655661" from="139775006" to="139775050" priority="-1" type="service">
        <lane id="-143655661_0" index="0" speed="5.56" length="26.60" shape="7113.59,4624.85 7110.37,4598.44"/>
    </edge>

    <edge id="-143655662" from="139774966" to="139775006" priority="-1" type="service">
        <lane id="-143655662_0" index="0" speed="5.56" length="20.46" shape="7117.03,4655.81 7114.81,4635.47"/>
    </edge>

    <edge id="-143655663" from="139774933" to="139774966" priority="-1" type="service">
        <lane id="-143655663_0" index="0" speed="5.56" length="15.81" shape="7120.12,4682.09 7118.24,4666.39"/>
    </edge>

    <edge id="-143655670" from="139774966" to="139775080" priority="-1" type="service">
        <lane id="-143655670_0" index="0" speed="5.56" length="60.34" shape="7114.61,4663.92 7056.26,4679.26"/>
    </edge>

    <edge id="-143655671" from="139775026" to="139774966" priority="-1" type="service">
        <lane id="-143655671_0" index="0" speed="5.56" length="72.49" shape="7164.97,4620.74 7167.91,4648.19 7124.90,4661.03"/>
    </edge>

    <edge id="-143655672" from="139775071" to="139775026" priority="-1" type="service">
        <lane id="-143655672_0" index="0" speed="5.56" length="27.72" shape="7160.93,4583.61 7163.94,4611.17"/>
    </edge>

    <edge id="-143655680" from="139775006" to="139775112" priority="-1" type="service">
        <lane id="-143655680_0" index="0" speed="5.56" length="60.47" shape="7111.19,4633.01 7052.91,4649.18"/>
    </edge>

    <edge id="-143655681" from="139775026" to="139775006" priority="-1" type="service">
        <lane id="-143655681_0" index="0" speed="5.56" length="38.23" shape="7158.03,4618.69 7121.51,4629.98"/>
    </edge>

    <edge id="-143655690" from="139775050" to="139775112" priority="-1" type="service">
        <lane id="-143655690_0" index="0" speed="5.56" length="94.83" shape="7106.73,4596.00 7044.80,4613.21 7048.39,4643.55"/>
    </edge>

    <edge id="-143655691" from="139775071" to="139775050" priority="-1" type="service">
        <lane id="-143655691_0" index="0" speed="5.56" length="40.10" shape="7155.64,4582.60 7116.96,4593.18"/>
    </edge>

    <edge id="-14365570" from="139774948" to="139774933" priority="-1" type="service">
        <lane id="-14365570_0" index="0" speed="5.56" length="60.59" shape="7186.69,4673.32 7127.77,4687.41"/>
    </edge>

    <edge id="-14365571" from="139775096" to="139774933" priority="-1" type="service">
        <lane id="-14365571_0" index="0" speed="5.56" length="62.76" shape="7056.94,4701.98 7117.75,4686.48"/>
    </edge>

    <edge id="-143655720" from="139775080" to="139775112" priority="-1" type="service">
        <lane id="-143655720_0" index="0" speed="5.56" length="20.66" shape="7048.52,4673.96 7046.21,4653.43"/>
    </edge>

    <edge id="-143655721" from="139775096" to="139775080" priority="-1" type="service">
        <lane id="-143655721_0" index="0" speed="5.56" length="17.64" shape="7051.68,4701.01 7049.62,4683.49"/>
    </edge>

    <edge id="-146157500" from="19760391" to="143823638" priority="-1" type="residential">
        <lane id="-146157500_0" index="0" speed="13.89" length="156.76" shape="5289.78,5837.46 5322.51,5684.16"/>
    </edge>

    <edge id="-146157501" from="17062292" to="19760391" priority="-1" type="residential">
        <lane id="-146157501_0" index="0" speed="13.89" length="85.44" shape="5270.18,5930.42 5287.80,5846.82"/>
    </edge>

    <edge id="-146181660" from="16188701" to="19760435" priority="-1" type="secondary">
        <lane id="-146181660_0" index="0" speed="13.89" length="168.77" shape="4524.18,5887.49 4529.04,6042.57 4529.48,6056.17"/>
    </edge>

    <edge id="-146181661" from="16188706" to="16188701" priority="-1" type="secondary">
        <lane id="-146181661_0" index="0" speed="13.89" length="169.44" shape="4565.93,5713.14 4525.28,5877.63"/>
    </edge>

    <edge id="-146181662" from="18065513" to="16188706" priority="-1" type="secondary">
        <lane id="-146181662_0" index="0" speed="13.89" length="77.45" shape="4589.57,5629.36 4568.39,5703.87"/>
    </edge>

    <edge id="-14618169" from="19760435" to="19760433" priority="-1" type="secondary">
        <lane id="-14618169_0" index="0" speed="13.89" length="114.59" shape="4529.94,6057.25 4565.15,6092.94 4601.72,6146.01"/>
    </edge>

    <edge id="-15071474+-152260181" from="148648539" to="148648520" priority="0">
        <lane id="-15071474+-152260181_0" index="0" speed="5.56" length="74.64" shape="4265.01,4907.35 4334.91,4881.17"/>
        <lane id="-15071474+-152260181_1" index="1" speed="5.56" length="74.64" shape="4266.17,4910.44 4336.06,4884.26"/>
    </edge>

    <edge id="-150714780" from="10530346" to="10530345" priority="-1" type="residential">
        <lane id="-150714780_0" index="0" speed="13.89" length="50.07" shape="4542.31,4955.10 4494.54,4940.08"/>
    </edge>

    <edge id="-150714781" from="10530347" to="10530346" priority="-1" type="residential">
        <lane id="-150714781_0" index="0" speed="13.89" length="186.54" shape="4733.18,5001.26 4551.79,4957.73"/>
    </edge>

    <edge id="-152260180" from="148648520" to="94032454" priority="-1" type="service">
        <lane id="-152260180_0" index="0" speed="5.56" length="101.04" shape="4335.83,4876.95 4324.46,4865.42 4266.05,4887.65 4243.70,4887.65"/>
    </edge>

    <edge id="-152260182" from="94032454" to="148648539" priority="-1" type="service">
        <lane id="-152260182_0" index="0" speed="5.56" length="23.98" shape="4242.34,4891.44 4260.87,4906.66"/>
    </edge>

    <edge id="-15226021" from="150683975" to="14319164" priority="-1" type="service">
        <lane id="-15226021_0" index="0" speed="5.56" length="154.21" shape="4474.36,1153.53 4331.13,1210.68"/>
    </edge>

    <edge id="-152592200" from="26118255" to="12452115" priority="-1" type="secondary">
        <lane id="-152592200_0" index="0" speed="13.89" length="472.31" shape="7745.59,5127.81 8215.30,5078.37"/>
    </edge>

    <edge id="-152592201" from="26118242" to="26118255" priority="-1" type="secondary">
        <lane id="-152592201_0" index="0" speed="13.89" length="253.69" shape="7483.77,5155.37 7736.06,5128.81"/>
    </edge>

    <edge id="-152592202" from="12452116" to="26118242" priority="-1" type="secondary">
        <lane id="-152592202_0" index="0" speed="13.89" length="723.63" shape="6754.90,5234.31 6874.25,5220.35 7474.31,5156.37"/>
    </edge>

    <edge id="-15259223" from="12452103" to="21317479" priority="-1" type="secondary">
        <lane id="-15259223_0" index="0" speed="27.78" length="310.71" shape="7709.74,476.45 7715.48,350.36 7738.36,167.30"/>
    </edge>

    <edge id="-15259453" from="10187899" to="10187893" priority="-1" type="primary_link">
        <lane id="-15259453_0" index="0" speed="22.22" length="11.47" shape="668.66,3279.74 673.09,3276.79 676.74,3271.83"/>
    </edge>

    <edge id="-15259454" from="14405904" to="10187899" priority="-1" type="primary_link">
        <lane id="-15259454_0" index="0" speed="22.22" length="404.38" shape="377.02,3303.54 373.06,3333.35 379.19,3352.57 404.52,3375.20 429.60,3392.58 457.97,3406.95 494.62,3416.79 536.71,3404.97 571.80,3383.72 629.42,3317.37 663.15,3284.23"/>
    </edge>

    <edge id="-15799334" from="11302176" to="11302182" priority="-1" type="secondary">
        <lane id="-15799334_0" index="0" speed="27.78" length="330.50" shape="1064.55,287.35 1146.29,178.53 1186.01,122.42 1190.95,53.74 1170.96,0.58"/>
    </edge>

    <edge id="-16360623" from="168362974" to="168362965" priority="-1" type="residential">
        <lane id="-16360623_0" index="0" speed="13.89" length="466.13" shape="6993.26,4428.61 6940.65,3965.45"/>
    </edge>

    <edge id="-18355254" from="189191848" to="189191843" priority="-1" type="service">
        <lane id="-18355254_0" index="0" speed="5.56" length="105.35" shape="557.62,5165.39 588.83,5266.01"/>
    </edge>

    <edge id="-183552550" from="189191865" to="189191874" priority="-1" type="service">
        <lane id="-183552550_0" index="0" speed="5.56" length="38.07" shape="374.47,5304.13 385.94,5294.50 405.99,5305.95"/>
    </edge>

    <edge id="-183552551" from="189191855" to="189191865" priority="-1" type="service">
        <lane id="-183552551_0" index="0" speed="5.56" length="79.97" shape="305.87,5354.43 344.79,5308.43 364.39,5306.33"/>
    </edge>

    <edge id="-18355257" from="189191881" to="189191865" priority="-1" type="service">
        <lane id="-18355257_0" index="0" speed="5.56" length="71.09" shape="323.32,5369.49 366.75,5313.21"/>
    </edge>

    <edge id="-198341670" from="17062285" to="21299122" priority="-1" type="residential">
        <lane id="-198341670_0" index="0" speed="13.89" length="127.25" shape="5194.22,5220.38 5197.70,5220.88 5317.82,5250.54"/>
    </edge>

    <edge id="-198341671" from="17062284" to="17062285" priority="-1" type="residential">
        <lane id="-198341671_0" index="0" speed="13.89" length="175.45" shape="5016.14,5181.06 5187.41,5219.15"/>
    </edge>

    <edge id="-20168359" from="213275585" to="21112873" priority="-1" type="residential">
        <lane id="-20168359_0" index="0" speed="13.89" length="105.82" shape="5467.12,5048.17 5443.21,5151.25"/>
    </edge>

    <edge id="-201895160" from="213498608" to="213498574" priority="-1" type="residential">
        <lane id="-201895160_0" index="0" speed="13.89" length="214.68" shape="3190.07,3885.54 3154.98,3852.69 3125.52,3823.35 3120.24,3803.25 3117.85,3754.04 3115.35,3699.11"/>
    </edge>

    <edge id="-201895161+-201895201+201895200" from="213498613" to="213498608" priority="0">
        <lane id="-201895161+-201895201+201895200_0" index="0" speed="13.89" length="35.62" shape="3212.91,3917.06 3192.26,3888.04"/>
        <lane id="-201895161+-201895201+201895200_1" index="1" speed="13.89" length="35.62" shape="3215.60,3915.15 3194.95,3886.13"/>
        <lane id="-201895161+-201895201+201895200_2" index="2" speed="13.89" length="35.62" shape="3218.29,3913.23 3197.64,3884.21"/>
    </edge>

    <edge id="-201895162" from="213498618" to="213498613" priority="-1" type="residential">
        <lane id="-201895162_0" index="0" speed="13.89" length="4.60" shape="3224.55,3918.35 3220.78,3915.71"/>
    </edge>

    <edge id="-201895200+201895161+201895201" from="213498608" to="213498613" priority="0">
        <lane id="-201895200+201895161+201895201_0" index="0" speed="13.89" length="35.62" shape="3205.70,3878.47 3226.35,3907.49"/>
        <lane id="-201895200+201895161+201895201_1" index="1" speed="13.89" length="35.62" shape="3203.01,3880.39 3223.66,3909.41"/>
        <lane id="-201895200+201895161+201895201_2" index="2" speed="13.89" length="35.62" shape="3200.33,3882.30 3220.97,3911.32"/>
    </edge>

    <edge id="-21249668" from="228588783" to="228588764" priority="-1" type="service">
        <lane id="-21249668_0" index="0" speed="5.56" length="176.86" shape="6602.33,2112.64 6545.01,2106.81 6535.78,2225.70"/>
    </edge>

    <edge id="-222784240" from="239698866" to="239698858" priority="-1" type="residential">
        <lane id="-222784240_0" index="0" speed="13.89" length="63.17" shape="3039.78,3760.02 3037.06,3696.91"/>
    </edge>

    <edge id="-222784241" from="239698874" to="239698866" priority="-1" type="residential">
        <lane id="-222784241_0" index="0" speed="13.89" length="13.90" shape="3039.98,3783.50 3039.98,3769.60"/>
    </edge>

    <edge id="-22278425" from="239698884" to="239698866" priority="-1" type="residential">
        <lane id="-22278425_0" index="0" speed="13.89" length="19.15" shape="3017.33,3765.36 3036.38,3763.39"/>
    </edge>

    <edge id="-22278426" from="239698902" to="239698893" priority="-1" type="residential">
        <lane id="-22278426_0" index="0" speed="13.89" length="143.78" shape="2895.69,3821.18 2966.74,3696.18"/>
    </edge>

    <edge id="-23311049" from="11302176" to="13697637" priority="-1" type="secondary">
        <lane id="-23311049_0" index="0" speed="27.78" length="73.96" shape="1067.08,289.49 1030.22,353.61"/>
    </edge>

    <edge id="-23315690" from="21281664" to="252430163" priority="-1" type="secondary">
        <lane id="-23315690_0" index="0" speed="27.78" length="18.67" shape="62.62,91.96 56.31,109.53"/>
    </edge>

    <edge id="-23315691" from="252430163" to="13697623" priority="-1" type="secondary">
        <lane id="-23315691_0" index="0" speed="27.78" length="78.32" shape="56.30,109.56 30.56,183.53"/>
    </edge>

    <edge id="-23316291" from="26907023" to="18233570" priority="-1" type="residential">
        <lane id="-23316291_0" index="0" speed="13.89" length="95.89" shape="2604.02,1697.58 2599.26,1793.35"/>
    </edge>

    <edge id="-23316717" from="10180300" to="19861401" priority="-1" type="service">
        <lane id="-23316717_0" index="0" speed="5.56" length="70.76" shape="4801.43,5017.05 4784.16,5085.67"/>
    </edge>

    <edge id="-23316718" from="91650092" to="10298174" priority="-1" type="residential">
        <lane id="-23316718_0" index="0" speed="13.89" length="56.43" shape="4818.80,4913.96 4764.06,4900.22"/>
    </edge>

    <edge id="-233167190" from="21067823" to="91650092" priority="-1" type="residential">
        <lane id="-233167190_0" index="0" speed="13.89" length="117.41" shape="4943.00,4939.66 4827.99,4916.06"/>
    </edge>

    <edge id="-233167191" from="10372755" to="21067823" priority="-1" type="residential">
        <lane id="-233167191_0" index="0" speed="13.89" length="108.41" shape="5058.16,4965.09 4952.32,4941.65"/>
    </edge>

    <edge id="-233167192" from="15717195" to="10372755" priority="-1" type="residential">
        <lane id="-233167192_0" index="0" speed="13.89" length="191.47" shape="5245.50,5006.08 5131.61,5004.64 5110.69,4980.44 5067.02,4967.39"/>
    </edge>

    <edge id="-233167193" from="213275585" to="15717195" priority="-1" type="residential">
        <lane id="-233167193_0" index="0" speed="13.89" length="209.03" shape="5461.49,5043.76 5255.72,5007.00"/>
    </edge>

    <edge id="-233167194" from="15717201" to="213275585" priority="-1" type="residential">
        <lane id="-233167194_0" index="0" speed="13.89" length="93.32" shape="5562.73,5061.79 5470.85,5045.43"/>
    </edge>

    <edge id="-233167790" from="16933890" to="17573253" priority="-1" type="residential">
        <lane id="-233167790_0" index="0" speed="13.89" length="46.25" shape="4116.66,2450.02 4127.23,2468.77 4136.88,2491.53"/>
    </edge>

    <edge id="-233167791" from="16933893" to="16933890" priority="-1" type="residential">
        <lane id="-233167791_0" index="0" speed="13.89" length="235.65" shape="3936.09,2413.49 4056.23,2361.26 4077.30,2366.59 4086.99,2387.78 4112.33,2441.75"/>
    </edge>

    <edge id="-23317348" from="17573253" to="252458655" priority="-1" type="residential">
        <lane id="-23317348_0" index="0" speed="13.89" length="278.90" shape="4137.19,2492.55 4144.76,2533.27 4147.68,2564.20 4091.45,2726.98 4082.34,2759.94"/>
    </edge>

    <edge id="-23317782" from="21262691" to="14319160" priority="-1" type="residential">
        <lane id="-23317782_0" index="0" speed="13.89" length="22.24" shape="3934.48,1177.11 3912.79,1182.02"/>
    </edge>

    <edge id="-233177830" from="26508272" to="21262691" priority="-1" type="residential">
        <lane id="-233177830_0" index="0" speed="13.89" length="186.19" shape="4115.79,1134.71 3934.50,1177.11"/>
    </edge>

    <edge id="-233177831" from="14319161" to="26508272" priority="-1" type="residential">
        <lane id="-233177831_0" index="0" speed="13.89" length="140.35" shape="4261.56,1099.86 4125.06,1132.51"/>
    </edge>

    <edge id="-23317784" from="21317520" to="19769168" priority="-1" type="residential">
        <lane id="-23317784_0" index="0" speed="13.89" length="136.77" shape="3659.81,207.85 3710.35,334.94"/>
    </edge>

    <edge id="-233179690" from="25300278" to="26508212" priority="-1" type="secondary">
        <lane id="-233179690_0" index="0" speed="8.33" length="111.01" shape="4053.56,79.89 3944.06,98.12"/>
    </edge>

    <edge id="-233179691" from="31922916" to="25300278" priority="-1" type="secondary">
        <lane id="-233179691_0" index="0" speed="8.33" length="66.35" shape="4128.60,68.63 4062.98,78.41"/>
    </edge>

    <edge id="-233179692" from="25300285" to="31922916" priority="-1" type="secondary">
        <lane id="-233179692_0" index="0" speed="8.33" length="88.98" shape="4216.73,56.15 4128.62,68.63"/>
    </edge>

    <edge id="-233179693" from="19769126" to="25300285" priority="-1" type="secondary">
        <lane id="-233179693_0" index="0" speed="8.33" length="79.79" shape="4296.51,51.43 4216.86,56.14"/>
    </edge>

    <edge id="-233179694" from="25300245" to="19769126" priority="-1" type="secondary">
        <lane id="-233179694_0" index="0" speed="8.33" length="118.49" shape="4416.33,8.04 4305.41,49.70"/>
    </edge>

    <edge id="-23317970" from="26213360" to="19769163" priority="-1" type="secondary">
        <lane id="-23317970_0" index="0" speed="8.33" length="14.66" shape="3810.29,146.01 3797.10,152.42"/>
    </edge>

    <edge id="-23341289" from="252744320" to="252744316" priority="-1" type="service">
        <lane id="-23341289_0" index="0" speed="5.56" length="29.77" shape="7658.98,1435.69 7637.59,1414.98"/>
    </edge>

    <edge id="-23341293" from="26841364" to="89119479" priority="-1" type="residential">
        <lane id="-23341293_0" index="0" speed="13.89" length="202.68" shape="7041.37,1680.59 7025.89,1588.89 6993.10,1484.22"/>
    </edge>

    <edge id="-23341944" from="252749623" to="252939648" priority="-1" type="service">
        <lane id="-23341944_0" index="0" speed="5.56" length="14.59" shape="7557.81,1055.85 7567.94,1045.36"/>
    </edge>

    <edge id="-23341951" from="252749632" to="252939646" priority="-1" type="service">
        <lane id="-23341951_0" index="0" speed="5.56" length="13.47" shape="7534.34,1033.33 7543.91,1023.85"/>
    </edge>

    <edge id="-23341953" from="252749640" to="252939639" priority="-1" type="service">
        <lane id="-23341953_0" index="0" speed="5.56" length="14.64" shape="7509.42,1010.87 7519.40,1000.17"/>
    </edge>
