[General]
network = scenario
debug-on-errors = true

cmdenv-express-mode = true
cmdenv-autoflush = true
cmdenv-status-frequency = 10000000s
tkenv-plugin-path = ../../../etc/plugins
tkenv-image-path = bitmaps

sim-time-limit = 6000s

**.vector-recording = true

**.constraintAreaMinX = 0m
**.constraintAreaMinY = 0m
**.constraintAreaMinZ = 0m
**.constraintAreaMaxX = 10699m
**.constraintAreaMaxY = 7131m
**.constraintAreaMaxZ = 0m

**.host*.**.channelNumber = 0

# channel physical parameters
*.radioMedium.carrierFrequency = 2.4GHz
*.radioMedium.maxTransmissionPower = 2.0mW
**.mgmt.numChannels = 1

# TraCIScenarioManagerLaunchd
*.manager.updateInterval = 1s
*.manager.host = "localhost"
*.manager.port = 9999
*.manager.moduleType = "inet.examples.traci_launchd.Car"
*.manager.moduleName = "host"
*.manager.moduleDisplayString = ""
*.manager.autoShutdown = true
*.manager.margin = 25
*.manager.launchConfig = xmldoc("sumo-launchd.launch.xml")

# nic settings
**.wlan.bitrate = 2Mbps

**.wlan.mgmt.frameCapacity = 10
**.wlan.mgmtType = "Ieee80211MgmtAdhoc"
**.wlan.mac.address = "auto"
**.wlan.mac.maxQueueSize = 14
**.wlan.mac.rtsThresholdBytes = 3000B
**.wlan.mac.retryLimit = 7
**.wlan.mac.cwMinData = 7
**.wlan.mac.cwMinBroadcast = 31

**.wlan.radio.transmitterPower = 2mW
**.wlan.radio.thermalNoise = -110dBm
**.wlan.radio.sensitivity = -85dBm
**.wlan.radio.pathLossAlpha = 2
**.wlan.radio.snirThreshold = 4dB

[Config accident]
*.host[10].mobility.accidentCount = 1
*.host[10].mobility.accidentStart = 115s
*.host[10].mobility.accidentDuration = 30s

