<?xml version="1.0"?>
<!-- 
194 Cars leaving the Computer Science Building and campus of the University of Erlangen-Nuremberg
Copyright (C) 2008 Christoph Sommer <christoph.sommer@informatik.uni-erlangen.de>
Licensed under the Creative Commons Attribution-ShareAlike 2.0 license <http://creativecommons.org/licenses/by-sa/2.0/>
-->
<routes>
   <vtype id="inet.examples.traci.Car;i=misc/node;is=vs;r=0,,#707070,1" accel="2.6" decel="4.5" sigma="0.5" length="5" maxspeed="14" color="1,1,0"/>
   <vtype id="inet.examples.traci.Car;i=misc/node2;is=vs;r=0,,#707070,1" accel="2.6" decel="4.5" sigma="0.5" length="5" maxspeed="14" color="1,1,0"/>
   <vehicle type="inet.examples.traci.Car;i=misc/node2;is=vs;r=0,,#707070,1" id="host[0]" depart="0">
      <route edges="23360303 -54452041 -54452040 -40066681 23339459 44009481 49007313 59316120 59316121 59316122 59316123 -4047343 40067020 49000430 4900044" />
   </vehicle>
   <vehicle type="inet.examples.traci.Car;i=misc/node2;is=vs;r=0,,#707070,1" id="host[1]" depart="3">
      <route edges="23360301 -54452042 -54452041 -54452040 -40066681 23339459 44009481 49007313 59316120 59316121 59316122 59316123 -4047343 40067020 49000430 4900044" />
   </vehicle>
   <vehicle type="inet.examples.traci.Car;i=misc/node2;is=vs;r=0,,#707070,1" id="host[2]" depart="6">
      <route edges="23360302 -54452043 -54452042 -54452041 -54452040 -40066681 23339459 44009481 49007313 59316120 59316121 59316122 59316123 -4047343 40067020 49000430 4900044" />
   </vehicle>
   <vehicle type="inet.examples.traci.Car;i=misc/node2;is=vs;r=0,,#707070,1" id="host[3]" depart="9">
      <route edges="23360303 -54452041 -54452040 -40066681 23339459 44009481 49007313 59316120 59316121 59316122 59316123 -4047343 40067020 49000430 4900044" />
   </vehicle>
   <vehicle type="inet.examples.traci.Car;i=misc/node2;is=vs;r=0,,#707070,1" id="host[4]" depart="12">
      <route edges="23360301 -54452042 -54452041 -54452040 -40066681 23339459 44009481 49007313 59316120 59316121 59316122 59316123 -4047343 40067020 49000430 4900044" />
   </vehicle>
   <vehicle type="inet.examples.traci.Car;i=misc/node2;is=vs;r=0,,#707070,1" id="host[5]" depart="15">
      <route edges="23360302 -54452043 -54452042 -54452041 -54452040 -40066681 23339459 44009481 49007313 59316120 59316121 59316122 59316123 -4047343 40067020 49000430 4900044" />
   </vehicle>
   <vehicle type="inet.examples.traci.Car;i=misc/node2;is=vs;r=0,,#707070,1" id="host[6]" depart="18">
      <route edges="23360303 -54452041 -54452040 -40066681 23339459 44009481 49007313 59316120 59316121 59316122 59316123 -4047343 40067020 49000430 4900044" />
   </vehicle>
   <vehicle type="inet.examples.traci.Car;i=misc/node2;is=vs;r=0,,#707070,1" id="host[7]" depart="21">
      <route edges="23360301 -54452042 -54452041 -54452040 -40066681 23339459 44009481 49007313 59316120 59316121 59316122 59316123 -4047343 40067020 49000430 4900044" />
   </vehicle>
   <vehicle type="inet.examples.traci.Car;i=misc/node2;is=vs;r=0,,#707070,1" id="host[8]" depart="24">
      <route edges="23360302 -54452043 -54452042 -54452041 -54452040 -40066681 23339459 44009481 49007313 59316120 59316121 59316122 59316123 -4047343 40067020 49000430 4900044" />
   </vehicle>
   <vehicle type="inet.examples.traci.Car;i=misc/node2;is=vs;r=0,,#707070,1" id="host[9]" depart="27">
      <route edges="23360303 -54452041 -54452040 -40066681 23339459 44009481 49007313 59316120 59316121 59316122 59316123 -4047343 40067020 49000430 4900044" />
   </vehicle>
   <vehicle type="inet.examples.traci.Car;i=misc/node;is=vs;r=0,,#707070,1" id="host[10]" depart="30">
      <route edges="23360301 -54452042 -54452041 -54452040 -40066681 23339459 44009481 49007313 59316120 59316121 59316122 59316123 -4047343 40067020 49000430 4900044" />
   </vehicle>
   <vehicle type="inet.examples.traci.Car;i=misc/node2;is=vs;r=0,,#707070,1" id="host[11]" depart="33">
      <route edges="23360302 -54452043 -54452042 -54452041 -54452040 -40066681 23339459 44009481 49007313 59316120 59316121 59316122 59316123 -4047343 40067020 49000430 4900044" />
   </vehicle>
   <vehicle type="inet.examples.traci.Car;i=misc/node2;is=vs;r=0,,#707070,1" id="host[12]" depart="36">
      <route edges="23360303 -54452041 -54452040 -40066681 23339459 44009481 49007313 59316120 59316121 59316122 59316123 -4047343 40067020 49000430 4900044" />
   </vehicle>
   <vehicle type="inet.examples.traci.Car;i=misc/node2;is=vs;r=0,,#707070,1" id="host[13]" depart="39">
      <route edges="23360301 -54452042 -54452041 -54452040 -40066681 23339459 44009481 49007313 59316120 59316121 59316122 59316123 -4047343 40067020 49000430 4900044" />
   </vehicle>
   <vehicle type="inet.examples.traci.Car;i=misc/node2;is=vs;r=0,,#707070,1" id="host[14]" depart="42">
      <route edges="23360302 -54452043 -54452042 -54452041 -54452040 -40066681 23339459 44009481 49007313 59316120 59316121 59316122 59316123 -4047343 40067020 49000430 4900044" />
   </vehicle>
   <vehicle type="inet.examples.traci.Car;i=misc/node2;is=vs;r=0,,#707070,1" id="host[15]" depart="45">
      <route edges="23360303 -54452041 -54452040 -40066681 23339459 44009481 49007313 59316120 59316121 59316122 59316123 -4047343 40067020 49000430 4900044" />
   </vehicle>
   <vehicle type="inet.examples.traci.Car;i=misc/node2;is=vs;r=0,,#707070,1" id="host[16]" depart="48">
      <route edges="23360301 -54452042 -54452041 -54452040 -40066681 23339459 44009481 49007313 59316120 59316121 59316122 59316123 -4047343 40067020 49000430 4900044" />
   </vehicle>
   <vehicle type="inet.examples.traci.Car;i=misc/node2;is=vs;r=0,,#707070,1" id="host[17]" depart="51">
      <route edges="23360302 -54452043 -54452042 -54452041 -54452040 -40066681 23339459 44009481 49007313 59316120 59316121 59316122 59316123 -4047343 40067020 49000430 4900044" />
   </vehicle>
   <vehicle type="inet.examples.traci.Car;i=misc/node2;is=vs;r=0,,#707070,1" id="host[18]" depart="54">
      <route edges="23360303 -54452041 -54452040 -40066681 23339459 44009481 49007313 59316120 59316121 59316122 59316123 -4047343 40067020 49000430 4900044" />
   </vehicle>
   <vehicle type="inet.examples.traci.Car;i=misc/node2;is=vs;r=0,,#707070,1" id="host[19]" depart="57">
      <route edges="23360301 -54452042 -54452041 -54452040 -40066681 23339459 44009481 49007313 59316120 59316121 59316122 59316123 -4047343 40067020 49000430 4900044" />
   </vehicle>
   <vehicle type="inet.examples.traci.Car;i=misc/node2;is=vs;r=0,,#707070,1" id="host[20]" depart="60">
      <route edges="23360302 -54452043 -54452042 -54452041 -54452040 -40066681 23339459 44009481 49007313 59316120 59316121 59316122 59316123 -4047343 40067020 49000430 4900044" />
   </vehicle>
   <vehicle type="inet.examples.traci.Car;i=misc/node2;is=vs;r=0,,#707070,1" id="host[21]" depart="63">
      <route edges="23360303 -54452041 -54452040 -40066681 23339459 44009481 49007313 59316120 59316121 59316122 59316123 -4047343 40067020 49000430 4900044" />
   </vehicle>
   <vehicle type="inet.examples.traci.Car;i=misc/node2;is=vs;r=0,,#707070,1" id="host[22]" depart="66">
      <route edges="23360301 -54452042 -54452041 -54452040 -40066681 23339459 44009481 49007313 59316120 59316121 59316122 59316123 -4047343 40067020 49000430 4900044" />
   </vehicle>
   <vehicle type="inet.examples.traci.Car;i=misc/node2;is=vs;r=0,,#707070,1" id="host[23]" depart="69">
      <route edges="23360302 -54452043 -54452042 -54452041 -54452040 -40066681 23339459 44009481 49007313 59316120 59316121 59316122 59316123 -4047343 40067020 49000430 4900044" />
   </vehicle>
   <vehicle type="inet.examples.traci.Car;i=misc/node2;is=vs;r=0,,#707070,1" id="host[24]" depart="72">
      <route edges="23360303 -54452041 -54452040 -40066681 23339459 44009481 49007313 59316120 59316121 59316122 59316123 -4047343 40067020 49000430 4900044" />
   </vehicle>
   <vehicle type="inet.examples.traci.Car;i=misc/node2;is=vs;r=0,,#707070,1" id="host[25]" depart="75">
      <route edges="23360301 -54452042 -54452041 -54452040 -40066681 23339459 44009481 49007313 59316120 59316121 59316122 59316123 -4047343 40067020 49000430 4900044" />
   </vehicle>
   <vehicle type="inet.examples.traci.Car;i=misc/node2;is=vs;r=0,,#707070,1" id="host[26]" depart="78">
      <route edges="23360302 -54452043 -54452042 -54452041 -54452040 -40066681 23339459 44009481 49007313 59316120 59316121 59316122 59316123 -4047343 40067020 49000430 4900044" />
   </vehicle>
   <vehicle type="inet.examples.traci.Car;i=misc/node2;is=vs;r=0,,#707070,1" id="host[27]" depart="81">
      <route edges="23360303 -54452041 -54452040 -40066681 23339459 44009481 49007313 59316120 59316121 59316122 59316123 -4047343 40067020 49000430 4900044" />
   </vehicle>
   <vehicle type="inet.examples.traci.Car;i=misc/node2;is=vs;r=0,,#707070,1" id="host[28]" depart="84">
      <route edges="23360301 -54452042 -54452041 -54452040 -40066681 23339459 44009481 49007313 59316120 59316121 59316122 59316123 -4047343 40067020 49000430 4900044" />
   </vehicle>
   <vehicle type="inet.examples.traci.Car;i=misc/node2;is=vs;r=0,,#707070,1" id="host[29]" depart="87">
      <route edges="23360302 -54452043 -54452042 -54452041 -54452040 -40066681 23339459 44009481 49007313 59316120 59316121 59316122 59316123 -4047343 40067020 49000430 4900044" />
   </vehicle>
   <vehicle type="inet.examples.traci.Car;i=misc/node2;is=vs;r=0,,#707070,1" id="host[30]" depart="90">
      <route edges="23360303 -54452041 -54452040 -40066681 23339459 44009481 49007313 59316120 59316121 59316122 59316123 -4047343 40067020 49000430 4900044" />
   </vehicle>
   <vehicle type="inet.examples.traci.Car;i=misc/node2;is=vs;r=0,,#707070,1" id="host[31]" depart="93">
      <route edges="23360301 -54452042 -54452041 -54452040 -40066681 23339459 44009481 49007313 59316120 59316121 59316122 59316123 -4047343 40067020 49000430 4900044" />
   </vehicle>
   <vehicle type="inet.examples.traci.Car;i=misc/node2;is=vs;r=0,,#707070,1" id="host[32]" depart="96">
      <route edges="23360302 -54452043 -54452042 -54452041 -54452040 -40066681 23339459 44009481 49007313 59316120 59316121 59316122 59316123 -4047343 40067020 49000430 4900044" />
   </vehicle>
   <vehicle type="inet.examples.traci.Car;i=misc/node2;is=vs;r=0,,#707070,1" id="host[33]" depart="99">
      <route edges="23360303 -54452041 -54452040 -40066681 23339459 44009481 49007313 59316120 59316121 59316122 59316123 -4047343 40067020 49000430 4900044" />
   </vehicle>
   <vehicle type="inet.examples.traci.Car;i=misc/node2;is=vs;r=0,,#707070,1" id="host[34]" depart="102">
      <route edges="23360301 -54452042 -54452041 -54452040 -40066681 23339459 44009481 49007313 59316120 59316121 59316122 59316123 -4047343 40067020 49000430 4900044" />
   </vehicle>
   <vehicle type="inet.examples.traci.Car;i=misc/node2;is=vs;r=0,,#707070,1" id="host[35]" depart="105">
      <route edges="23360302 -54452043 -54452042 -54452041 -54452040 -40066681 23339459 44009481 49007313 59316120 59316121 59316122 59316123 -4047343 40067020 49000430 4900044" />
   </vehicle>
   <vehicle type="inet.examples.traci.Car;i=misc/node2;is=vs;r=0,,#707070,1" id="host[36]" depart="108">
      <route edges="23360303 -54452041 -54452040 -40066681 23339459 44009481 49007313 59316120 59316121 59316122 59316123 -4047343 40067020 49000430 4900044" />
   </vehicle>
   <vehicle type="inet.examples.traci.Car;i=misc/node2;is=vs;r=0,,#707070,1" id="host[37]" depart="111">
      <route edges="23360301 -54452042 -54452041 -54452040 -40066681 23339459 44009481 49007313 59316120 59316121 59316122 59316123 -4047343 40067020 49000430 4900044" />
   </vehicle>
   <vehicle type="inet.examples.traci.Car;i=misc/node2;is=vs;r=0,,#707070,1" id="host[38]" depart="114">
      <route edges="23360302 -54452043 -54452042 -54452041 -54452040 -40066681 23339459 44009481 49007313 59316120 59316121 59316122 59316123 -4047343 40067020 49000430 4900044" />
   </vehicle>
   <vehicle type="inet.examples.traci.Car;i=misc/node2;is=vs;r=0,,#707070,1" id="host[39]" depart="117">
      <route edges="23360303 -54452041 -54452040 -40066681 23339459 44009481 49007313 59316120 59316121 59316122 59316123 -4047343 40067020 49000430 4900044" />
   </vehicle>
   <vehicle type="inet.examples.traci.Car;i=misc/node2;is=vs;r=0,,#707070,1" id="host[40]" depart="120">
      <route edges="23360301 -54452042 -54452041 -54452040 -40066681 23339459 44009481 49007313 59316120 59316121 59316122 59316123 -4047343 40067020 49000430 4900044" />
   </vehicle>
   <vehicle type="inet.examples.traci.Car;i=misc/node2;is=vs;r=0,,#707070,1" id="host[41]" depart="123">
      <route edges="23360302 -54452043 -54452042 -54452041 -54452040 -40066681 23339459 44009481 49007313 59316120 59316121 59316122 59316123 -4047343 40067020 49000430 4900044" />
   </vehicle>
   <vehicle type="inet.examples.traci.Car;i=misc/node2;is=vs;r=0,,#707070,1" id="host[42]" depart="126">
      <route edges="23360303 -54452041 -54452040 -40066681 23339459 44009481 49007313 59316120 59316121 59316122 59316123 -4047343 40067020 49000430 4900044" />
   </vehicle>
   <vehicle type="inet.examples.traci.Car;i=misc/node2;is=vs;r=0,,#707070,1" id="host[43]" depart="129">
      <route edges="23360301 -54452042 -54452041 -54452040 -40066681 23339459 44009481 49007313 59316120 59316121 59316122 59316123 -4047343 40067020 49000430 4900044" />
   </vehicle>
   <vehicle type="inet.examples.traci.Car;i=misc/node2;is=vs;r=0,,#707070,1" id="host[44]" depart="132">
      <route edges="23360302 -54452043 -54452042 -54452041 -54452040 -40066681 23339459 44009481 49007313 59316120 59316121 59316122 59316123 -4047343 40067020 49000430 4900044" />
   </vehicle>
   <vehicle type="inet.examples.traci.Car;i=misc/node2;is=vs;r=0,,#707070,1" id="host[45]" depart="135">
      <route edges="23360303 -54452041 -54452040 -40066681 23339459 44009481 49007313 59316120 59316121 59316122 59316123 -4047343 40067020 49000430 4900044" />
   </vehicle>
   <vehicle type="inet.examples.traci.Car;i=misc/node2;is=vs;r=0,,#707070,1" id="host[46]" depart="138">
      <route edges="23360301 -54452042 -54452041 -54452040 -40066681 23339459 44009481 49007313 59316120 59316121 59316122 59316123 -4047343 40067020 49000430 4900044" />
   </vehicle>
   <vehicle type="inet.examples.traci.Car;i=misc/node2;is=vs;r=0,,#707070,1" id="host[47]" depart="141">
      <route edges="23360302 -54452043 -54452042 -54452041 -54452040 -40066681 23339459 44009481 49007313 59316120 59316121 59316122 59316123 -4047343 40067020 49000430 4900044" />
   </vehicle>
   <vehicle type="inet.examples.traci.Car;i=misc/node2;is=vs;r=0,,#707070,1" id="host[48]" depart="144">
      <route edges="23360303 -54452041 -54452040 -40066681 23339459 44009481 49007313 59316120 59316121 59316122 59316123 -4047343 40067020 49000430 4900044" />
   </vehicle>
   <vehicle type="inet.examples.traci.Car;i=misc/node2;is=vs;r=0,,#707070,1" id="host[49]" depart="147">
      <route edges="23360301 -54452042 -54452041 -54452040 -40066681 23339459 44009481 49007313 59316120 59316121 59316122 59316123 -4047343 40067020 49000430 4900044" />
   </vehicle>
   <vehicle type="inet.examples.traci.Car;i=misc/node2;is=vs;r=0,,#707070,1" id="host[50]" depart="150">
      <route edges="23360302 -54452043 -54452042 -54452041 -54452040 -40066681 23339459 44009481 49007313 59316120 59316121 59316122 59316123 -4047343 40067020 49000430 4900044" />
   </vehicle>
   <vehicle type="inet.examples.traci.Car;i=misc/node2;is=vs;r=0,,#707070,1" id="host[51]" depart="153">
      <route edges="23360303 -54452041 -54452040 -40066681 23339459 44009481 49007313 59316120 59316121 59316122 59316123 -4047343 40067020 49000430 4900044" />
   </vehicle>
   <vehicle type="inet.examples.traci.Car;i=misc/node2;is=vs;r=0,,#707070,1" id="host[52]" depart="156">
      <route edges="23360301 -54452042 -54452041 -54452040 -40066681 23339459 44009481 49007313 59316120 59316121 59316122 59316123 -4047343 40067020 49000430 4900044" />
   </vehicle>
   <vehicle type="inet.examples.traci.Car;i=misc/node2;is=vs;r=0,,#707070,1" id="host[53]" depart="159">
      <route edges="23360302 -54452043 -54452042 -54452041 -54452040 -40066681 23339459 44009481 49007313 59316120 59316121 59316122 59316123 -4047343 40067020 49000430 4900044" />
   </vehicle>
   <vehicle type="inet.examples.traci.Car;i=misc/node2;is=vs;r=0,,#707070,1" id="host[54]" depart="162">
      <route edges="23360303 -54452041 -54452040 -40066681 23339459 44009481 49007313 59316120 59316121 59316122 59316123 -4047343 40067020 49000430 4900044" />
   </vehicle>
   <vehicle type="inet.examples.traci.Car;i=misc/node2;is=vs;r=0,,#707070,1" id="host[55]" depart="165">
      <route edges="23360301 -54452042 -54452041 -54452040 -40066681 23339459 44009481 49007313 59316120 59316121 59316122 59316123 -4047343 40067020 49000430 4900044" />
   </vehicle>
   <vehicle type="inet.examples.traci.Car;i=misc/node2;is=vs;r=0,,#707070,1" id="host[56]" depart="168">
      <route edges="23360302 -54452043 -54452042 -54452041 -54452040 -40066681 23339459 44009481 49007313 59316120 59316121 59316122 59316123 -4047343 40067020 49000430 4900044" />
   </vehicle>
   <vehicle type="inet.examples.traci.Car;i=misc/node2;is=vs;r=0,,#707070,1" id="host[57]" depart="171">
      <route edges="23360303 -54452041 -54452040 -40066681 23339459 44009481 49007313 59316120 59316121 59316122 59316123 -4047343 40067020 49000430 4900044" />
   </vehicle>
   <vehicle type="inet.examples.traci.Car;i=misc/node2;is=vs;r=0,,#707070,1" id="host[58]" depart="174">
      <route edges="23360301 -54452042 -54452041 -54452040 -40066681 23339459 44009481 49007313 59316120 59316121 59316122 59316123 -4047343 40067020 49000430 4900044" />
   </vehicle>
   <vehicle type="inet.examples.traci.Car;i=misc/node2;is=vs;r=0,,#707070,1" id="host[59]" depart="177">
      <route edges="23360302 -54452043 -54452042 -54452041 -54452040 -40066681 23339459 44009481 49007313 59316120 59316121 59316122 59316123 -4047343 40067020 49000430 4900044" />
   </vehicle>
   <vehicle type="inet.examples.traci.Car;i=misc/node2;is=vs;r=0,,#707070,1" id="host[60]" depart="180">
      <route edges="23360303 -54452041 -54452040 -40066681 23339459 44009481 49007313 59316120 59316121 59316122 59316123 -4047343 40067020 49000430 4900044" />
   </vehicle>
   <vehicle type="inet.examples.traci.Car;i=misc/node2;is=vs;r=0,,#707070,1" id="host[61]" depart="183">
      <route edges="23360301 -54452042 -54452041 -54452040 -40066681 23339459 44009481 49007313 59316120 59316121 59316122 59316123 -4047343 40067020 49000430 4900044" />
   </vehicle>
   <vehicle type="inet.examples.traci.Car;i=misc/node2;is=vs;r=0,,#707070,1" id="host[62]" depart="186">
      <route edges="23360302 -54452043 -54452042 -54452041 -54452040 -40066681 23339459 44009481 49007313 59316120 59316121 59316122 59316123 -4047343 40067020 49000430 4900044" />
   </vehicle>
   <vehicle type="inet.examples.traci.Car;i=misc/node2;is=vs;r=0,,#707070,1" id="host[63]" depart="189">
      <route edges="23360303 -54452041 -54452040 -40066681 23339459 44009481 49007313 59316120 59316121 59316122 59316123 -4047343 40067020 49000430 4900044" />
   </vehicle>
   <vehicle type="inet.examples.traci.Car;i=misc/node2;is=vs;r=0,,#707070,1" id="host[64]" depart="192">
      <route edges="23360301 -54452042 -54452041 -54452040 -40066681 23339459 44009481 49007313 59316120 59316121 59316122 59316123 -4047343 40067020 49000430 4900044" />
   </vehicle>
   <vehicle type="inet.examples.traci.Car;i=misc/node2;is=vs;r=0,,#707070,1" id="host[65]" depart="195">
      <route edges="23360302 -54452043 -54452042 -54452041 -54452040 -40066681 23339459 44009481 49007313 59316120 59316121 59316122 59316123 -4047343 40067020 49000430 4900044" />
   </vehicle>
   <vehicle type="inet.examples.traci.Car;i=misc/node2;is=vs;r=0,,#707070,1" id="host[66]" depart="198">
      <route edges="23360303 -54452041 -54452040 -40066681 23339459 44009481 49007313 59316120 59316121 59316122 59316123 -4047343 40067020 49000430 4900044" />
   </vehicle>
   <vehicle type="inet.examples.traci.Car;i=misc/node2;is=vs;r=0,,#707070,1" id="host[67]" depart="201">
      <route edges="23360301 -54452042 -54452041 -54452040 -40066681 23339459 44009481 49007313 59316120 59316121 59316122 59316123 -4047343 40067020 49000430 4900044" />
   </vehicle>
   <vehicle type="inet.examples.traci.Car;i=misc/node2;is=vs;r=0,,#707070,1" id="host[68]" depart="204">
      <route edges="23360302 -54452043 -54452042 -54452041 -54452040 -40066681 23339459 44009481 49007313 59316120 59316121 59316122 59316123 -4047343 40067020 49000430 4900044" />
   </vehicle>
   <vehicle type="inet.examples.traci.Car;i=misc/node2;is=vs;r=0,,#707070,1" id="host[69]" depart="207">
      <route edges="23360303 -54452041 -54452040 -40066681 23339459 44009481 49007313 59316120 59316121 59316122 59316123 -4047343 40067020 49000430 4900044" />
   </vehicle>
   <vehicle type="inet.examples.traci.Car;i=misc/node2;is=vs;r=0,,#707070,1" id="host[70]" depart="210">
      <route edges="23360301 -54452042 -54452041 -54452040 -40066681 23339459 44009481 49007313 59316120 59316121 59316122 59316123 -4047343 40067020 49000430 4900044" />
   </vehicle>
   <vehicle type="inet.examples.traci.Car;i=misc/node2;is=vs;r=0,,#707070,1" id="host[71]" depart="213">
      <route edges="23360302 -54452043 -54452042 -54452041 -54452040 -40066681 23339459 44009481 49007313 59316120 59316121 59316122 59316123 -4047343 40067020 49000430 4900044" />
   </vehicle>
   <vehicle type="inet.examples.traci.Car;i=misc/node2;is=vs;r=0,,#707070,1" id="host[72]" depart="216">
      <route edges="23360303 -54452041 -54452040 -40066681 23339459 44009481 49007313 59316120 59316121 59316122 59316123 -4047343 40067020 49000430 4900044" />
   </vehicle>
   <vehicle type="inet.examples.traci.Car;i=misc/node2;is=vs;r=0,,#707070,1" id="host[73]" depart="219">
      <route edges="23360301 -54452042 -54452041 -54452040 -40066681 23339459 44009481 49007313 59316120 59316121 59316122 59316123 -4047343 40067020 49000430 4900044" />
   </vehicle>
   <vehicle type="inet.examples.traci.Car;i=misc/node2;is=vs;r=0,,#707070,1" id="host[74]" depart="222">
      <route edges="23360302 -54452043 -54452042 -54452041 -54452040 -40066681 23339459 44009481 49007313 59316120 59316121 59316122 59316123 -4047343 40067020 49000430 4900044" />
   </vehicle>
   <vehicle type="inet.examples.traci.Car;i=misc/node2;is=vs;r=0,,#707070,1" id="host[75]" depart="225">
      <route edges="23360303 -54452041 -54452040 -40066681 23339459 44009481 49007313 59316120 59316121 59316122 59316123 -4047343 40067020 49000430 4900044" />
   </vehicle>
   <vehicle type="inet.examples.traci.Car;i=misc/node2;is=vs;r=0,,#707070,1" id="host[76]" depart="228">
      <route edges="23360301 -54452042 -54452041 -54452040 -40066681 23339459 44009481 49007313 59316120 59316121 59316122 59316123 -4047343 40067020 49000430 4900044" />
   </vehicle>
   <vehicle type="inet.examples.traci.Car;i=misc/node2;is=vs;r=0,,#707070,1" id="host[77]" depart="231">
      <route edges="23360302 -54452043 -54452042 -54452041 -54452040 -40066681 23339459 44009481 49007313 59316120 59316121 59316122 59316123 -4047343 40067020 49000430 4900044" />
   </vehicle>
   <vehicle type="inet.examples.traci.Car;i=misc/node2;is=vs;r=0,,#707070,1" id="host[78]" depart="234">
      <route edges="23360303 -54452041 -54452040 -40066681 23339459 44009481 49007313 59316120 59316121 59316122 59316123 -4047343 40067020 49000430 4900044" />
   </vehicle>
   <vehicle type="inet.examples.traci.Car;i=misc/node2;is=vs;r=0,,#707070,1" id="host[79]" depart="237">
      <route edges="23360301 -54452042 -54452041 -54452040 -40066681 23339459 44009481 49007313 59316120 59316121 59316122 59316123 -4047343 40067020 49000430 4900044" />
   </vehicle>
   <vehicle type="inet.examples.traci.Car;i=misc/node2;is=vs;r=0,,#707070,1" id="host[80]" depart="240">
      <route edges="23360302 -54452043 -54452042 -54452041 -54452040 -40066681 23339459 44009481 49007313 59316120 59316121 59316122 59316123 -4047343 40067020 49000430 4900044" />
   </vehicle>
   <vehicle type="inet.examples.traci.Car;i=misc/node2;is=vs;r=0,,#707070,1" id="host[81]" depart="243">
      <route edges="23360303 -54452041 -54452040 -40066681 23339459 44009481 49007313 59316120 59316121 59316122 59316123 -4047343 40067020 49000430 4900044" />
   </vehicle>
   <vehicle type="inet.examples.traci.Car;i=misc/node2;is=vs;r=0,,#707070,1" id="host[82]" depart="246">
      <route edges="23360301 -54452042 -54452041 -54452040 -40066681 23339459 44009481 49007313 59316120 59316121 59316122 59316123 -4047343 40067020 49000430 4900044" />
   </vehicle>
   <vehicle type="inet.examples.traci.Car;i=misc/node2;is=vs;r=0,,#707070,1" id="host[83]" depart="249">
      <route edges="23360302 -54452043 -54452042 -54452041 -54452040 -40066681 23339459 44009481 49007313 59316120 59316121 59316122 59316123 -4047343 40067020 49000430 4900044" />
   </vehicle>
   <vehicle type="inet.examples.traci.Car;i=misc/node2;is=vs;r=0,,#707070,1" id="host[84]" depart="252">
      <route edges="23360303 -54452041 -54452040 -40066681 23339459 44009481 49007313 59316120 59316121 59316122 59316123 -4047343 40067020 49000430 4900044" />
   </vehicle>
   <vehicle type="inet.examples.traci.Car;i=misc/node2;is=vs;r=0,,#707070,1" id="host[85]" depart="255">
      <route edges="23360301 -54452042 -54452041 -54452040 -40066681 23339459 44009481 49007313 59316120 59316121 59316122 59316123 -4047343 40067020 49000430 4900044" />
   </vehicle>
   <vehicle type="inet.examples.traci.Car;i=misc/node2;is=vs;r=0,,#707070,1" id="host[86]" depart="258">
      <route edges="23360302 -54452043 -54452042 -54452041 -54452040 -40066681 23339459 44009481 49007313 59316120 59316121 59316122 59316123 -4047343 40067020 49000430 4900044" />
   </vehicle>
   <vehicle type="inet.examples.traci.Car;i=misc/node2;is=vs;r=0,,#707070,1" id="host[87]" depart="261">
      <route edges="23360303 -54452041 -54452040 -40066681 23339459 44009481 49007313 59316120 59316121 59316122 59316123 -4047343 40067020 49000430 4900044" />
   </vehicle>
   <vehicle type="inet.examples.traci.Car;i=misc/node2;is=vs;r=0,,#707070,1" id="host[88]" depart="264">
      <route edges="23360301 -54452042 -54452041 -54452040 -40066681 23339459 44009481 49007313 59316120 59316121 59316122 59316123 -4047343 40067020 49000430 4900044" />
   </vehicle>
   <vehicle type="inet.examples.traci.Car;i=misc/node2;is=vs;r=0,,#707070,1" id="host[89]" depart="267">
      <route edges="23360302 -54452043 -54452042 -54452041 -54452040 -40066681 23339459 44009481 49007313 59316120 59316121 59316122 59316123 -4047343 40067020 49000430 4900044" />
   </vehicle>
   <vehicle type="inet.examples.traci.Car;i=misc/node2;is=vs;r=0,,#707070,1" id="host[90]" depart="270">
      <route edges="23360303 -54452041 -54452040 -40066681 23339459 44009481 49007313 59316120 59316121 59316122 59316123 -4047343 40067020 49000430 4900044" />
   </vehicle>
   <vehicle type="inet.examples.traci.Car;i=misc/node2;is=vs;r=0,,#707070,1" id="host[91]" depart="273">
      <route edges="23360301 -54452042 -54452041 -54452040 -40066681 23339459 44009481 49007313 59316120 59316121 59316122 59316123 -4047343 40067020 49000430 4900044" />
   </vehicle>
   <vehicle type="inet.examples.traci.Car;i=misc/node2;is=vs;r=0,,#707070,1" id="host[92]" depart="276">
      <route edges="23360302 -54452043 -54452042 -54452041 -54452040 -40066681 23339459 44009481 49007313 59316120 59316121 59316122 59316123 -4047343 40067020 49000430 4900044" />
   </vehicle>
   <vehicle type="inet.examples.traci.Car;i=misc/node2;is=vs;r=0,,#707070,1" id="host[93]" depart="279">
      <route edges="23360303 -54452041 -54452040 -40066681 23339459 44009481 49007313 59316120 59316121 59316122 59316123 -4047343 40067020 49000430 4900044" />
   </vehicle>
   <vehicle type="inet.examples.traci.Car;i=misc/node2;is=vs;r=0,,#707070,1" id="host[94]" depart="282">
      <route edges="23360301 -54452042 -54452041 -54452040 -40066681 23339459 44009481 49007313 59316120 59316121 59316122 59316123 -4047343 40067020 49000430 4900044" />
   </vehicle>
   <vehicle type="inet.examples.traci.Car;i=misc/node2;is=vs;r=0,,#707070,1" id="host[95]" depart="285">
      <route edges="23360302 -54452043 -54452042 -54452041 -54452040 -40066681 23339459 44009481 49007313 59316120 59316121 59316122 59316123 -4047343 40067020 49000430 4900044" />
   </vehicle>
   <vehicle type="inet.examples.traci.Car;i=misc/node2;is=vs;r=0,,#707070,1" id="host[96]" depart="288">
      <route edges="23360303 -54452041 -54452040 -40066681 23339459 44009481 49007313 59316120 59316121 59316122 59316123 -4047343 40067020 49000430 4900044" />
   </vehicle>
   <vehicle type="inet.examples.traci.Car;i=misc/node2;is=vs;r=0,,#707070,1" id="host[97]" depart="291">
      <route edges="23360301 -54452042 -54452041 -54452040 -40066681 23339459 44009481 49007313 59316120 59316121 59316122 59316123 -4047343 40067020 49000430 4900044" />
   </vehicle>
   <vehicle type="inet.examples.traci.Car;i=misc/node2;is=vs;r=0,,#707070,1" id="host[98]" depart="294">
      <route edges="23360302 -54452043 -54452042 -54452041 -54452040 -40066681 23339459 44009481 49007313 59316120 59316121 59316122 59316123 -4047343 40067020 49000430 4900044" />
   </vehicle>
   <vehicle type="inet.examples.traci.Car;i=misc/node2;is=vs;r=0,,#707070,1" id="host[99]" depart="297">
      <route edges="23360303 -54452041 -54452040 -40066681 23339459 44009481 49007313 59316120 59316121 59316122 59316123 -4047343 40067020 49000430 4900044" />
   </vehicle>
   <vehicle type="inet.examples.traci.Car;i=misc/node2;is=vs;r=0,,#707070,1" id="host[100]" depart="300">
      <route edges="23360301 -54452042 -54452041 -54452040 -40066681 23339459 44009481 49007313 59316120 59316121 59316122 59316123 -4047343 40067020 49000430 4900044" />
   </vehicle>
   <vehicle type="inet.examples.traci.Car;i=misc/node2;is=vs;r=0,,#707070,1" id="host[101]" depart="303">