#
# RSTP testing
#		40 seconds simulations. Testing MVRP priority mechanism
#
#	They all have a MAC related to their name.
#
#	BEB3RootByPriority. BEB3 will be root because  of its lower switch priority number.  ////Switch priority criterion
#	BEB1RootByMAC. BEB1 will be root because of its lower MAC number. Cost criterion can be checked here too. BEB6 will prefer BEB4 because of the shortest path.
#	BEB2to7BySrcPriority. Source switch priority test. BEB2 will prefer BEB7 because of its better priority (lower priority number).
#	BKandAlteranateLinks. Backup link and an alternate link.  7====5   and 2=autoconnected
#	TopologyChange. BEB1 appears and disappears because its hellotime is 10s.
#

[General]
sim-time-limit = 100s
tkenv-plugin-path = ../../../etc/plugins
**.vector-recording = false


[Config Test101]
network = BEB1Tester4
sim-time-limit = 3.5s
**.scalar-recording = false
**.vector-recording = false
**.agingTime=50s
**.BEB1.**.BridgePriority = 128
**.BEB1.**.address="000000000005"
**.BEB1.**.outputFrame = 0 #0=ethernet  1=802.1q  2=802.1ad
**.BEB1.**.configIS = xmldoc("genericIS.xml")
**.BEB1.**.testing = true
**.rstp.verbose=true
**.T0.testerObject.Messages = xmldoc("Test101/Messages/T0.xml")
**.T1.testerObject.Messages = xmldoc("Test101/Messages/T1.xml")
**.T2.testerObject.Messages = xmldoc("Test101/Messages/T2.xml")
**.T3.testerObject.Messages = xmldoc("Test101/Messages/T3.xml")

[Config Test102]
network = BEB1Tester4
sim-time-limit = 3.5s
**.scalar-recording = false
**.vector-recording = false
**.agingTime=50s
**.BEB1.**.BridgePriority = 128
**.BEB1.**.address="000000000005"
**.BEB1.**.outputFrame = 0 #0=ethernet  1=802.1q  2=802.1ad
**.BEB1.**.configIS = xmldoc("genericIS.xml")
**.BEB1.**.testing = true
**.T0.testerObject.Messages = xmldoc("Test102/Messages/T0.xml")
**.T1.testerObject.Messages = xmldoc("Test102/Messages/T1.xml")
**.T2.testerObject.Messages = xmldoc("Test102/Messages/T2.xml")
**.T3.testerObject.Messages = xmldoc("Test102/Messages/T3.xml")

[Config Test103]
network = BEB1Tester4
sim-time-limit = 3.5s
**.scalar-recording = false
**.vector-recording = false
**.agingTime=50s
**.BEB1.**.BridgePriority = 128
**.BEB1.**.address="000000000005"
**.BEB1.**.outputFrame = 0 #0=ethernet  1=802.1q  2=802.1ad
**.BEB1.**.configIS = xmldoc("genericIS.xml")
**.BEB1.**.testing = true
**.T0.testerObject.Messages = xmldoc("Test103/Messages/T0.xml")
**.T1.testerObject.Messages = xmldoc("Test103/Messages/T1.xml")
**.T2.testerObject.Messages = xmldoc("Test103/Messages/T2.xml")
**.T3.testerObject.Messages = xmldoc("Test103/Messages/T3.xml")

[Config Test104]
network = BEB1Tester4
sim-time-limit = 3.5s
**.scalar-recording = false
**.vector-recording = false
**.agingTime=50s
**.BEB1.**.BridgePriority = 128
**.BEB1.**.address="000000000005"
**.BEB1.**.outputFrame = 0 #0=ethernet  1=802.1q  2=802.1ad
**.BEB1.**.configIS = xmldoc("genericIS.xml")
**.BEB1.**.testing = true
**.T0.testerObject.Messages = xmldoc("Test104/Messages/T0.xml")
**.T1.testerObject.Messages = xmldoc("Test104/Messages/T1.xml")
**.T2.testerObject.Messages = xmldoc("Test104/Messages/T2.xml")
**.T3.testerObject.Messages = xmldoc("Test104/Messages/T3.xml")

[Config Test105]
network = BEB1Tester4
sim-time-limit = 3.5s
**.scalar-recording = false
**.vector-recording = false
**.agingTime=50s
**.BEB1.**.BridgePriority = 128
**.BEB1.**.address="000000000005"
**.BEB1.**.outputFrame = 0 #0=ethernet  1=802.1q  2=802.1ad
**.BEB1.**.configIS = xmldoc("genericIS.xml")
**.BEB1.**.testing = true
**.T0.testerObject.Messages = xmldoc("Test105/Messages/T0.xml")
**.T1.testerObject.Messages = xmldoc("Test105/Messages/T1.xml")
**.T2.testerObject.Messages = xmldoc("Test105/Messages/T2.xml")
**.T3.testerObject.Messages = xmldoc("Test105/Messages/T3.xml")

[Config Test106]
network = BEB1Tester4
sim-time-limit = 3.5s
**.scalar-recording = false
**.vector-recording = false
**.agingTime=50s
**.BEB1.**.BridgePriority = 128
**.BEB1.**.address="000000000005"
**.BEB1.**.outputFrame = 0 #0=ethernet  1=802.1q  2=802.1ad
**.BEB1.**.configIS = xmldoc("genericIS.xml")
**.BEB1.**.testing = true
**.T0.testerObject.Messages = xmldoc("Test106/Messages/T0.xml")
**.T1.testerObject.Messages = xmldoc("Test106/Messages/T1.xml")
**.T2.testerObject.Messages = xmldoc("Test106/Messages/T2.xml")
**.T3.testerObject.Messages = xmldoc("Test106/Messages/T3.xml")

[Config Test107]
network = BEB1Tester4
sim-time-limit = 3.5s
**.scalar-recording = false
**.vector-recording = false
**.agingTime=50s
**.BEB1.**.BridgePriority = 128
**.BEB1.**.address="000000000005"
**.BEB1.**.outputFrame = 0 #0=ethernet  1=802.1q  2=802.1ad
**.BEB1.**.configIS = xmldoc("genericIS.xml")
**.BEB1.**.testing = true
**.T0.testerObject.Messages = xmldoc("Test107/Messages/T0.xml")
**.T1.testerObject.Messages = xmldoc("Test107/Messages/T1.xml")
**.T2.testerObject.Messages = xmldoc("Test107/Messages/T2.xml")
**.T3.testerObject.Messages = xmldoc("Test107/Messages/T3.xml")

[Config Test108]
network = BEB1Tester4
sim-time-limit = 3.5s
**.scalar-recording = false
**.vector-recording = false
**.agingTime=50s
**.BEB1.**.BridgePriority = 128
**.BEB1.**.address="000000000005"
**.BEB1.**.outputFrame = 0 #0=ethernet  1=802.1q  2=802.1ad
**.BEB1.**.configIS = xmldoc("genericIS.xml")
**.BEB1.**.testing = true
**.T0.testerObject.Messages = xmldoc("Test108/Messages/T0.xml")
**.T1.testerObject.Messages = xmldoc("Test108/Messages/T1.xml")
**.T2.testerObject.Messages = xmldoc("Test108/Messages/T2.xml")
**.T3.testerObject.Messages = xmldoc("Test108/Messages/T3.xml")

[Config Test109]
network = BEB1Tester4
sim-time-limit = 3.5s
**.scalar-recording = false
**.vector-recording = false
**.agingTime=50s
**.BEB1.**.BridgePriority = 127
**.BEB1.**.address="000000000005"
**.BEB1.**.outputFrame = 0 #0=ethernet  1=802.1q  2=802.1ad
**.BEB1.**.configIS = xmldoc("genericIS.xml")
**.BEB1.**.testing = true
**.T0.testerObject.Messages = xmldoc("Test109/Messages/T0.xml")
**.T1.testerObject.Messages = xmldoc("Test109/Messages/T1.xml")
**.T2.testerObject.Messages = xmldoc("Test109/Messages/T2.xml")
**.T3.testerObject.Messages = xmldoc("Test109/Messages/T3.xml")

[Config Test110]
network = BEB1Tester4
sim-time-limit = 3.5s
**.scalar-recording = false
**.vector-recording = false
**.agingTime=50s
**.BEB1.**.BridgePriority = 128
**.BEB1.**.address="000000000003"
**.BEB1.**.outputFrame = 0 #0=ethernet  1=802.1q  2=802.1ad
**.BEB1.**.configIS = xmldoc("genericIS.xml")
**.BEB1.**.testing = true
**.T0.testerObject.Messages = xmldoc("Test110/Messages/T0.xml")
**.T1.testerObject.Messages = xmldoc("Test110/Messages/T1.xml")
**.T2.testerObject.Messages = xmldoc("Test110/Messages/T2.xml")
**.T3.testerObject.Messages = xmldoc("Test110/Messages/T3.xml")

[Config Test111]
network = BEB1Tester4
sim-time-limit = 3.5s
**.scalar-recording = false
**.vector-recording = false
**.agingTime=50s
**.BEB1.**.BridgePriority = 128
**.BEB1.**.address="000000000005"
**.BEB1.**.outputFrame = 0 #0=ethernet  1=802.1q  2=802.1ad
**.BEB1.**.configIS = xmldoc("genericIS.xml")
**.BEB1.**.testing = true
**.T0.testerObject.Messages = xmldoc("Test111/Messages/T0.xml")
**.T1.testerObject.Messages = xmldoc("Test111/Messages/T1.xml")
**.T2.testerObject.Messages = xmldoc("Test111/Messages/T2.xml")
**.T3.testerObject.Messages = xmldoc("Test111/Messages/T3.xml")

[Config Test112]
network = BEB1Tester4
sim-time-limit = 3.5s
**.scalar-recording = false
**.vector-recording = false
**.agingTime=50s
**.BEB1.**.BridgePriority = 129
**.BEB1.**.address="000000000005"
**.BEB1.**.outputFrame = 0 #0=ethernet  1=802.1q  2=802.1ad
**.BEB1.**.configIS = xmldoc("genericIS.xml")
**.BEB1.**.testing = true
**.T0.testerObject.Messages = xmldoc("Test112/Messages/T0.xml")
**.T1.testerObject.Messages = xmldoc("Test112/Messages/T1.xml")
**.T2.testerObject.Messages = xmldoc("Test112/Messages/T2.xml")
**.T3.testerObject.Messages = xmldoc("Test112/Messages/T3.xml")


[Config Test113]
network = BEB1Tester4
sim-time-limit = 3.5s
**.scalar-recording = false
**.vector-recording = false
**.agingTime=50s
**.BEB1.**.BridgePriority = 128
**.BEB1.**.address="000000000005"
**.BEB1.**.outputFrame = 0 #0=ethernet  1=802.1q  2=802.1ad
**.BEB1.**.configIS = xmldoc("genericIS.xml")
**.BEB1.**.testing = true
**.T0.testerObject.Messages = xmldoc("Test113/Messages/T0.xml")
**.T1.testerObject.Messages = xmldoc("Test113/Messages/T1.xml")
**.T2.testerObject.Messages = xmldoc("Test113/Messages/T2.xml")
**.T3.testerObject.Messages = xmldoc("Test113/Messages/T3.xml")

[Config Test114]
network = BEB1Tester4
sim-time-limit = 3.5s
**.scalar-recording = false
**.vector-recording = false
**.agingTime=50s
**.BEB1.**.BridgePriority = 128
**.BEB1.**.address="000000000005"
**.BEB1.**.outputFrame = 0 #0=ethernet  1=802.1q  2=802.1ad
**.BEB1.**.configIS = xmldoc("genericIS.xml")
**.BEB1.**.testing = true
**.T0.testerObject.Messages = xmldoc("Test114/Messages/T0.xml")
**.T1.testerObject.Messages = xmldoc("Test114/Messages/T1.xml")
**.T2.testerObject.Messages = xmldoc("Test114/Messages/T2.xml")
**.T3.testerObject.Messages = xmldoc("Test114/Messages/T3.xml")

[Config Test115]
network = BEB1Tester4
sim-time-limit = 3.5s
**.scalar-recording = false
**.vector-recording = false
**.agingTime=50s
**.BEB1.**.BridgePriority = 128
**.BEB1.**.address="000000000005"
**.BEB1.**.outputFrame = 0 #0=ethernet  1=802.1q  2=802.1ad
**.BEB1.**.configIS = xmldoc("genericIS.xml")
**.BEB1.**.testing = true
**.T0.testerObject.Messages = xmldoc("Test115/Messages/T0.xml")
**.T1.testerObject.Messages = xmldoc("Test115/Messages/T1.xml")
**.T2.testerObject.Messages = xmldoc("Test115/Messages/T2.xml")
**.T3.testerObject.Messages = xmldoc("Test115/Messages/T3.xml")

[Config Test116]
network = BEB1Tester4
sim-time-limit = 3.5s
**.scalar-recording = false
**.vector-recording = false
**.agingTime=50s
**.BEB1.**.BridgePriority = 128
**.BEB1.**.address="000000000005"
**.BEB1.**.outputFrame = 0 #0=ethernet  1=802.1q  2=802.1ad
**.BEB1.**.configIS = xmldoc("genericIS.xml")
**.BEB1.**.testing = true
**.T0.testerObject.Messages = xmldoc("Test116/Messages/T0.xml")
**.T1.testerObject.Messages = xmldoc("Test116/Messages/T1.xml")
**.T2.testerObject.Messages = xmldoc("Test116/Messages/T2.xml")
**.T3.testerObject.Messages = xmldoc("Test116/Messages/T3.xml")

[Config Test117]
network = BEB1Tester4
sim-time-limit = 3.5s
**.scalar-recording = false
**.vector-recording = false
**.agingTime=50s
**.BEB1.**.BridgePriority = 128
**.BEB1.**.address="000000000005"
**.BEB1.**.outputFrame = 0 #0=ethernet  1=802.1q  2=802.1ad
**.BEB1.**.configIS = xmldoc("genericIS.xml")
**.BEB1.**.testing = true
**.testerObject.detailedRSTP = true
**.testerObject.testing = true
**.T0.testerObject.Messages = xmldoc("Test117/Messages/T0.xml")
**.T1.testerObject.Messages = xmldoc("Test117/Messages/Empty.xml")
**.T2.testerObject.Messages = xmldoc("Test117/Messages/Empty.xml")
**.T3.testerObject.Messages = xmldoc("Test117/Messages/Empty.xml")

[Config Test118]
network = BEB1Tester4
sim-time-limit = 3.5s
**.scalar-recording = false
**.vector-recording = false
**.agingTime=50s
**.BEB1.**.BridgePriority = 128
**.BEB1.**.address="000000000005"
**.BEB1.**.outputFrame = 0 #0=ethernet  1=802.1q  2=802.1ad
**.BEB1.**.configIS = xmldoc("genericIS.xml")
**.BEB1.**.testing = true
**.testerObject.detailedRSTP = true
**.testerObject.testing = true
**.T0.testerObject.Messages = xmldoc("Test118/Messages/T0.xml")
**.T1.testerObject.Messages = xmldoc("Test118/Messages/Empty.xml")
**.T2.testerObject.Messages = xmldoc("Test118/Messages/Empty.xml")
**.T3.testerObject.Messages = xmldoc("Test118/Messages/Empty.xml")

[Config Test119]
network = BEB1Tester4
sim-time-limit = 11.9s
**.scalar-recording = false
**.vector-recording = false
**.agingTime=50s
**.BEB1.**.BridgePriority = 128
**.BEB1.**.address="000000000005"
**.BEB1.**.outputFrame = 0 #0=ethernet  1=802.1q  2=802.1ad
**.BEB1.**.configIS = xmldoc("genericIS.xml")
**.BEB1.**.migrateTime = 0.5s
**.BEB1.**.forwardDelay = 2s
**.BEB1.**.testing = true
**.testerObject.detailedRSTP = true
**.testerObject.testing = true
**.T0.testerObject.Messages = xmldoc("Test119/Messages/T0.xml")
**.T1.testerObject.Messages = xmldoc("Test119/Messages/Empty.xml")
**.T2.testerObject.Messages = xmldoc("Test119/Messages/Empty.xml")
**.T3.testerObject.Messages = xmldoc("Test119/Messages/Empty.xml")

[Config Test120]
network = BEB1Tester4
sim-time-limit = 3.5s
**.scalar-recording = false
**.vector-recording = false
**.agingTime=50s
**.BEB1.**.BridgePriority = 128
**.BEB1.**.address="000000000005"
**.BEB1.**.outputFrame = 0 #0=ethernet  1=802.1q  2=802.1ad
**.BEB1.**.configIS = xmldoc("genericIS.xml")
**.BEB1.**.testing = true
**.T0.testerObject.Messages = xmldoc("Test120/Messages/T0.xml")
**.T1.testerObject.Messages = xmldoc("Test120/Messages/Empty.xml")
**.T2.testerObject.Messages = xmldoc("Test120/Messages/Empty.xml")
**.T3.testerObject.Messages = xmldoc("Test120/Messages/Empty.xml")

[Config Test121]
network = BEB1Tester4
sim-time-limit = 3.5s
**.scalar-recording = false
**.vector-recording = false
**.agingTime=50s
**.BEB1.**.BridgePriority = 128
**.BEB1.**.address="000000000005"
**.BEB1.**.outputFrame = 0 #0=ethernet  1=802.1q  2=802.1ad
**.BEB1.**.configIS = xmldoc("genericIS.xml")
**.BEB1.**.testing = true
**.T0.testerObject.Messages = xmldoc("Test121/Messages/T0.xml")
**.T1.testerObject.Messages = xmldoc("Test121/Messages/Empty.xml")
**.T2.testerObject.Messages = xmldoc("Test121/Messages/Empty.xml")
**.T3.testerObject.Messages = xmldoc("Test121/Messages/Empty.xml")

[Config Test122]
network = BEB1Tester4
sim-time-limit = 9s
**.scalar-recording = false
**.vector-recording = false
**.agingTime=50s
**.BEB1.**.BridgePriority = 128
**.BEB1.**.address="000000000005"
**.BEB1.**.outputFrame = 0 #0=ethernet  1=802.1q  2=802.1ad
**.BEB1.**.configIS = xmldoc("genericIS.xml")
**.BEB1.**.testing = true
**.helloTime = 2s
**.T0.testerObject.Messages = xmldoc("Test122/Messages/T0.xml")
**.T1.testerObject.Messages = xmldoc("Test122/Messages/Empty.xml")
**.T2.testerObject.Messages = xmldoc("Test122/Messages/Empty.xml")
**.T3.testerObject.Messages = xmldoc("Test122/Messages/T3.xml")

[Config Test123]
network = BEB1Tester4
sim-time-limit = 10s
**.scalar-recording = false
**.vector-recording = false
**.agingTime=50s
**.BEB1.**.BridgePriority = 128
**.BEB1.**.address="000000000005"
**.BEB1.**.outputFrame = 0 #0=ethernet  1=802.1q  2=802.1ad
**.BEB1.**.configIS = xmldoc("genericIS.xml")
**.BEB1.**.testing = true
**.helloTime = 2s
**.T0.testerObject.Messages = xmldoc("Test123/Messages/T0.xml")
**.T1.testerObject.Messages = xmldoc("Test123/Messages/Empty.xml")
**.T2.testerObject.Messages = xmldoc("Test123/Messages/Empty.xml")
**.T3.testerObject.Messages = xmldoc("Test123/Messages/T3.xml")

[Config Test124]
network = BEB1Tester4
sim-time-limit = 9s
**.scalar-recording = false
**.vector-recording = false
**.agingTime=50s
**.BEB1.**.BridgePriority = 128
**.BEB1.**.address="000000000005"
**.BEB1.**.outputFrame = 0 #0=ethernet  1=802.1q  2=802.1ad
**.BEB1.**.configIS = xmldoc("genericIS.xml")
**.BEB1.**.testing = true
**.helloTime = 2s
**.T0.testerObject.Messages = xmldoc("Test124/Messages/T0.xml")
**.T1.testerObject.Messages = xmldoc("Test124/Messages/Empty.xml")
**.T2.testerObject.Messages = xmldoc("Test124/Messages/Empty.xml")
**.T3.testerObject.Messages = xmldoc("Test124/Messages/Empty.xml")

[Config Test125]
network = BEB1Tester4
sim-time-limit = 3.5s
**.scalar-recording = false
**.vector-recording = false
**.agingTime=50s
**.BEB1.**.BridgePriority = 128
**.BEB1.**.address="000000000005"
**.BEB1.**.outputFrame = 0 #0=ethernet  1=802.1q  2=802.1ad
**.BEB1.**.configIS = xmldoc("genericIS.xml")
**.BEB1.**.testing = true
**.T0.testerObject.Messages = xmldoc("Test125/Messages/T0.xml")
**.T1.testerObject.Messages = xmldoc("Test125/Messages/Empty.xml")
**.T2.testerObject.Messages = xmldoc("Test125/Messages/Empty.xml")
**.T3.testerObject.Messages = xmldoc("Test125/Messages/Empty.xml")

[Config Test126]
network = BEB1Tester4
sim-time-limit = 3.5s
**.scalar-recording = false
**.vector-recording = false
**.agingTime=50s
**.BEB1.**.BridgePriority = 128
**.BEB1.**.address="000000000005"
**.BEB1.**.outputFrame = 0 #0=ethernet  1=802.1q  2=802.1ad
**.BEB1.**.configIS = xmldoc("genericIS.xml")
**.BEB1.**.testing = true
**.T0.testerObject.Messages = xmldoc("Test126/Messages/T0.xml")
**.T1.testerObject.Messages = xmldoc("Test126/Messages/T1.xml")
**.T2.testerObject.Messages = xmldoc("Test126/Messages/Empty.xml")
**.T3.testerObject.Messages = xmldoc("Test126/Messages/Empty.xml")



[Config Test151]
#BEB3 will be Root By Priority
network = CompleteNetwork
sim-time-limit = 60s
**.scalar-recording = false
**.vector-recording = false
**.rstp.testing=true
**.agingTime = 1s
**.switchBEB3.**.BridgePriority = 1  #Default is 128
**.switchBEB1.**.address="AAAAAA000001"
**.switchBEB2.**.address="AAAAAA000002"
**.switchBEB3.**.address="AAAAAA000003"
**.switchBEB4.**.address="AAAAAA000004"
**.switchBEB5.**.address="AAAAAA000005"
**.switchBEB6.**.address="AAAAAA000006"
**.switchBEB7.**.address="AAAAAA000007"
**.outputFrame=0 #0=ethernet  1=802.1q  2=802.1ad
#**.configIS= xmldoc("6.xml")
**.rstp.verbose=true


[Config Test152]
#BEB1 will be Root By MAC
network = CompleteNetwork
sim-time-limit = 60s
**.scalar-recording = false
**.vector-recording = false
**.rstp.testing=true
**.agingTime = 1s
**.switchBEB1.**.address="AAAAAA000001"
**.switchBEB2.**.address="AAAAAA000002"
**.switchBEB3.**.address="AAAAAA000003"
**.switchBEB4.**.address="AAAAAA000004"
**.switchBEB5.**.address="AAAAAA000005"
**.switchBEB6.**.address="AAAAAA000006"
**.switchBEB7.**.address="AAAAAA000007"
**.icomponent[*].vid = 1  
**.outputFrame=0 #0=ethernet  1=802.1q  2=802.1ad
**.configIS= xmldoc("6.xml")


[Config Test153]
#BEB2 to 7 alternate By Src Priority
network = CompleteNetwork
sim-time-limit = 60s
**.scalar-recording = false
**.vector-recording = false
**.rstp.testing=true
**.agingTime = 1s
**.switchBEB1.**.BridgePriority = 1  #Better than 7
**.switchBEB7.**.BridgePriority = 5
**.switchBEB1.**.address="AAAAAA000001"
**.switchBEB2.**.address="AAAAAA000002"
**.switchBEB3.**.address="AAAAAA000003"
**.switchBEB4.**.address="AAAAAA000004"
**.switchBEB5.**.address="AAAAAA000005"
**.switchBEB6.**.address="AAAAAA000006"
**.switchBEB7.**.address="AAAAAA000007"
**.icomponent[*].vid = 1  
**.outputFrame=0 #0=ethernet  1=802.1q  2=802.1ad
**.configIS= xmldoc("6.xml")
**.rstp.verbose=true

[Config Test154]
#BK and Alternate Links
#BEB2 autoconnection
#BEB7 has 2 links to BEB5
network = NetworkWithBK
sim-time-limit = 60s
**.scalar-recording = false
**.vector-recording = false
**.rstp.testing=true
**.agingTime = 1s
**.switchBEB1.**.address="AAAAAA000001"
**.switchBEB2.**.address="AAAAAA000002"
**.switchBEB3.**.address="AAAAAA000003"
**.switchBEB4.**.address="AAAAAA000004"
**.switchBEB5.**.address="AAAAAA000005"
**.switchBEB6.**.address="AAAAAA000006"
**.switchBEB7.**.address="AAAAAA000007"
**.icomponent[*].vid = 1  
**.outputFrame=0 #0=ethernet  1=802.1q  2=802.1ad
**.configIS= xmldoc("6.xml")
**.rstp.verbose = true


[Config Test155]
#Topology change
network = CompleteNetwork
sim-time-limit = 200s
**.scalar-recording = false
**.vector-recording = false
**.rstp.testing=true
**.agingTime = 1s
**.switchBEB1.**.address="AAAAAA000001"
**.switchBEB2.**.address="AAAAAA000002"
**.switchBEB3.**.address="AAAAAA000003"
**.switchBEB4.**.address="AAAAAA000004"
**.switchBEB5.**.address="AAAAAA000005"
**.switchBEB6.**.address="AAAAAA000006"
**.switchBEB7.**.address="AAAAAA000007"
**.icomponent[*].vid = 1  
**.outputFrame=0 #0=ethernet  1=802.1q  2=802.1ad
**.configIS= xmldoc("6.xml")
**.switchBEB1.rstp.UpTimeEvents=xmldoc("Test155/BEB1UpTimeEvents.xml")
**.rstp.verbose = true

[Config Test156]
#Intermediate node failure
network = CompleteNetwork
sim-time-limit = 200s
**.scalar-recording = false
**.vector-recording = false
**.rstp.testing=true
**.agingTime = 1s
**.switchBEB1.**.address="AAAAAA000001"
**.switchBEB2.**.address="AAAAAA000002"
**.switchBEB3.**.address="AAAAAA000003"
**.switchBEB4.**.address="AAAAAA000004"
**.switchBEB5.**.address="AAAAAA000005"
**.switchBEB6.**.address="AAAAAA000006"
**.switchBEB7.**.address="AAAAAA000007"
**.icomponent[*].vid = 1  
**.outputFrame=0 #0=ethernet  1=802.1q  2=802.1ad
**.configIS= xmldoc("6.xml")
**.switchBEB4.rstp.UpTimeEvents=xmldoc("Test156/BEB4UpTimeEvents.xml")
**.rstp.verbose = true

[Config Test157]
#Topology change
network = CompleteNetwork
sim-time-limit = 250s
**.scalar-recording = false
**.vector-recording = false
**.rstp.testing=true
**.agingTime = 1s
**.switchBEB1.**.address="AAAAAA000001"
**.switchBEB2.**.address="AAAAAA000002"
**.switchBEB3.**.address="AAAAAA000003"
**.switchBEB4.**.address="AAAAAA000004"
**.switchBEB5.**.address="AAAAAA000005"
**.switchBEB6.**.address="AAAAAA000006"
**.switchBEB7.**.address="AAAAAA000007"
**.icomponent[*].vid = 1  
**.outputFrame=0 #0=ethernet  1=802.1q  2=802.1ad
**.configIS= xmldoc("6.xml")
**.switchBEB1.rstp.UpTimeEvents=xmldoc("Test157/BEB1UpTimeEvents.xml")
**.rstp.verbose = true

[Config Test158]
#Intermediate node failure
network = CompleteNetwork
sim-time-limit = 250s
**.scalar-recording = false
**.vector-recording = false
**.rstp.testing=true
**.agingTime = 1s
**.switchBEB1.**.address="AAAAAA000001"
**.switchBEB2.**.address="AAAAAA000002"
**.switchBEB3.**.address="AAAAAA000003"
**.switchBEB4.**.address="AAAAAA000004"
**.switchBEB5.**.address="AAAAAA000005"
**.switchBEB6.**.address="AAAAAA000006"
**.switchBEB7.**.address="AAAAAA000007"
**.icomponent[*].vid = 1  
**.outputFrame=0 #0=ethernet  1=802.1q  2=802.1ad
**.configIS= xmldoc("6.xml")
**.switchBEB4.rstp.UpTimeEvents=xmldoc("Test158/BEB4UpTimeEvents.xml")
**.rstp.verbose = true
