[General]
#debug-on-errors = true
#record-eventlog = true
network = Scenario
sim-time-limit = 60min

cmdenv-express-mode = true

*.hosts = 3

**.constraintAreaMinX = 0m
**.constraintAreaMinY = 0m
**.constraintAreaMinZ = 0m
**.constraintAreaMaxX = 600m
**.constraintAreaMaxY = 400m
**.constraintAreaMaxZ = 0m

# mobility
**.host*.mobility.typename = "MassMobility"
**.host*.mobility.initFromDisplayString = false
**.host*.mobility.changeInterval = truncnormal(2s, 0.5s)
**.host*.mobility.changeAngleBy = normal(0deg, 30deg)
**.host*.mobility.speed = truncnormal(20mps, 8mps)
**.host*.mobility.updateInterval = 100ms
**.host*.ac_wlan.interfaces = "wlan0"

# UdpBasicApp / UdpSink
**.host*.numApps = 1
**.app[0].typename = "UdpBasicApp"
**.app[0].destAddresses = "host[0]"
**.app[0].localPort = 9001
**.app[0].destPort = 9001
**.app[0].messageLength = 100B
**.app[0].startTime = uniform(10s, 30s)
**.app[0].sendInterval = uniform(10s, 30s)

# nic settings
**.wlan[*].bitrate = 2Mbps

**.wlan[*].mgmt.frameCapacity = 10
**.wlan[*].mac.retryLimit = 7
**.wlan[*].mac.dcf.channelAccess.cwMin = 7
**.wlan[*].mac.cwMinBroadcast = 31

**.wlan[*].radio.transmitter.power = 2mW
**.wlan[*].radio.receiver.sensitivity = -85dBm
**.wlan[*].radio.receiver.snirThreshold = 4dB

**.udpapp.*.vector-recording = true
**.vector-recording = true
