[General]
network = tcpwindowscale
#abstract-config = true (requires omnet 7)

warnings = true
sim-time-limit = 600.0s

#
# Network specific settings
#

# ip settings
**.forwarding = false

# hookType settings
# Arp settings
**.arp.retryTimeout = 1s
**.arp.retryCount = 3
**.arp.cacheTimeout = 100s

# NIC settings
**.ppp[*].queue.typename = "DropTailQueue"
**.ppp[*].queue.packetCapacity = 100    # packets

# tcp apps - client
**.client.numApps = 1
**.client.app[*].typename = "TcpSessionApp"  # FTP
**.client.app[*].sendBytes = 1000MiB
**.client.app[*].active = true
**.client.app[*].localPort = 10020
**.client.app[*].connectAddress = "server"
**.client.app[*].connectPort = 10021
**.client.app[*].tOpen = 0s
**.client.app[*].tSend = 0s
**.client.app[*].tClose = 0s
**.client.app[*].sendScript = ""

# tcp apps - server
**.server.numApps = 1
**.server.app[*].typename = "TcpSinkApp"
**.server.app[*].localPort = 10021

# tcp settings
**.tcp.typename = "Tcp"
**.tcp.advertisedWindow = 65535                      # in bytes, corresponds with the maximal receiver buffer capacity (Note: normally, NIC queues should be at least this size)
**.tcp.delayedAcksEnabled = false                    # delayed ACK algorithm (RFC 1122) enabled/disabled
**.tcp.nagleEnabled = true                           # Nagle's algorithm (RFC 896) enabled/disabled
**.tcp.limitedTransmitEnabled = false                # Limited Transmit algorithm (RFC 3042) enabled/disabled (can be used for TcpReno/TcpTahoe/TcpNewReno/TcpNoCongestionControl)
**.tcp.increasedIWEnabled = false                    # Increased Initial Window (RFC 3390) enabled/disabled
**.tcp.sackSupport = false                           # Selective Acknowledgment (RFC 2018, 2883, 3517) support (header option) (SACK will be enabled for a connection if both endpoints support it)
**.tcp.windowScalingSupport = false                  # Window Scale (RFC 1323) support (header option) (WS will be enabled for a connection if both endpoints support it)
**.tcp.timestampSupport = false                      # Timestamps (RFC 1323) support (header option) (TS will be enabled for a connection if both endpoints support it)
**.tcp.mss = 1452                                    # Maximum Segment Size (RFC 793) (header option)
**.tcp.tcpAlgorithmClass = "TcpReno"                 # TcpReno/TcpTahoe/TcpNewReno/TcpNoCongestionControl/DumbTcp

#
# Config specific settings
#

[Config WS_disabled]
description = "Window_Scale_disabled"
**.tcp.windowScalingSupport = false
**.tcp.advertisedWindow = 65535

[Config WS_enabled]
description = "Window_Scale_enabled"
**.tcp.windowScalingSupport = true
**.tcp.advertisedWindow = 65535*100

