%description:

In this test, packets are collected periodically by an active packet sink
(ActivePacketSink). The packets are provided by a passive packet source
(PassivePacketSource). Packets are passed through from the source to the sink by
a filter (PacketFilter). Every second packet is dropped.

%file: test.ned

import inet.queueing.sink.ActivePacketSink;
import inet.queueing.filter.PacketFilter;
import inet.queueing.source.PassivePacketSource;

network TestFilter
{
    submodules:
        provider: PassivePacketSource {
            @display("p=100,100");
        }
        filter: PacketFilter {
            @display("p=200,100");
        }
        collector: ActivePacketSink {
            @display("p=300,100");
        }
    connections allowunconnected:
        provider.out --> filter.in;
        filter.out --> collector.in;
}

%file: Test.cc
#include "inet/queueing/function/PacketFilterFunction.h"
#include "inet/common/packet/Packet.h"

using namespace inet; 

static bool testFilter(const Packet *packet)
{
    return packet->getId() % 2 == 0;
}

Register_Packet_Filter_Function(TestFilter, testFilter);

%inifile: omnetpp.ini

[General]
network = TestFilter
sim-time-limit = 10s
cmdenv-event-banners = false
cmdenv-log-prefix = "At %ts %N: "
*.provider.packetLength = 1B
*.collector.collectionInterval = 1s
*.filter.filterClass = "TestFilter"

%# remove formatting
%subst: /\x1B\[[0-9;]*m//

%subst: /\nRunning simulation\.\.\.\n//

%contains-regex: stdout
At 0s provider: Providing packet, .*?provider-0.*?
At 0s filter: Passing through packet, .*?provider-0.*?
At 0s collector: Collecting packet, .*?provider-0.*?
At 1s provider: Providing packet, .*?provider-1.*?
At 1s filter: Filtering out packet, .*?provider-1.*?
At 1s provider: Providing packet, .*?provider-2.*?
At 1s filter: Passing through packet, .*?provider-2.*?
At 1s collector: Collecting packet, .*?provider-2.*?
At 2s provider: Providing packet, .*?provider-3.*?
At 2s filter: Filtering out packet, .*?provider-3.*?
At 2s provider: Providing packet, .*?provider-4.*?
At 2s filter: Passing through packet, .*?provider-4.*?
At 2s collector: Collecting packet, .*?provider-4.*?
At 3s provider: Providing packet, .*?provider-5.*?
At 3s filter: Filtering out packet, .*?provider-5.*?
At 3s provider: Providing packet, .*?provider-6.*?
At 3s filter: Passing through packet, .*?provider-6.*?
At 3s collector: Collecting packet, .*?provider-6.*?
At 4s provider: Providing packet, .*?provider-7.*?
At 4s filter: Filtering out packet, .*?provider-7.*?
At 4s provider: Providing packet, .*?provider-8.*?
At 4s filter: Passing through packet, .*?provider-8.*?
At 4s collector: Collecting packet, .*?provider-8.*?
At 5s provider: Providing packet, .*?provider-9.*?
At 5s filter: Filtering out packet, .*?provider-9.*?
At 5s provider: Providing packet, .*?provider-10.*?
At 5s filter: Passing through packet, .*?provider-10.*?
At 5s collector: Collecting packet, .*?provider-10.*?
At 6s provider: Providing packet, .*?provider-11.*?
At 6s filter: Filtering out packet, .*?provider-11.*?
At 6s provider: Providing packet, .*?provider-12.*?
At 6s filter: Passing through packet, .*?provider-12.*?
At 6s collector: Collecting packet, .*?provider-12.*?
At 7s provider: Providing packet, .*?provider-13.*?
At 7s filter: Filtering out packet, .*?provider-13.*?
At 7s provider: Providing packet, .*?provider-14.*?
At 7s filter: Passing through packet, .*?provider-14.*?
At 7s collector: Collecting packet, .*?provider-14.*?
At 8s provider: Providing packet, .*?provider-15.*?
At 8s filter: Filtering out packet, .*?provider-15.*?
At 8s provider: Providing packet, .*?provider-16.*?
At 8s filter: Passing through packet, .*?provider-16.*?
At 8s collector: Collecting packet, .*?provider-16.*?
At 9s provider: Providing packet, .*?provider-17.*?
At 9s filter: Filtering out packet, .*?provider-17.*?
At 9s provider: Providing packet, .*?provider-18.*?
At 9s filter: Passing through packet, .*?provider-18.*?
At 9s collector: Collecting packet, .*?provider-18.*?
At 10s provider: Providing packet, .*?provider-19.*?
At 10s filter: Filtering out packet, .*?provider-19.*?
At 10s provider: Providing packet, .*?provider-20.*?
At 10s filter: Passing through packet, .*?provider-20.*?
At 10s collector: Collecting packet, .*?provider-20.*?

<!> Simulation time limit reached -- at t=10s
