%description:

TODO

%file: test.ned

import inet.queueing.PassivePacketSource;
import inet.queueing.ActivePacketSink;
import inet.queueing.PacketQueue;
import inet.queueing.QueueBasedTokenGenerator;
import inet.queueing.TokenBasedServer;

network TestPacketQueue
{
    submodules:
        provider: PassivePacketSource {
            @display("p=100,100");
        }
        server: TokenBasedServer {
            @display("p=100,200");
        }
        queue: PacketQueue {
            @display("p=100,300");
        }
        collector: ActivePacketSink {
            @display("p=100,400");
        }
        tokenGenerator: QueueBasedTokenGenerator {
            @display("p=300,100");
        }
    connections allowunconnected:
        provider.out --> server.in;
        server.out --> queue.in;
        queue.out --> collector.in;
}

%inifile: omnetpp.ini

[General]
network = TestPacketQueue
sim-time-limit = 10s
cmdenv-event-banners = false
*.provider.packetLength = 1B
*.provider.providingInterval = 0s
*.server.initialNumTokens = 1
*.collector.collectionInterval = uniform(0s, 2s)
*.tokenGenerator.queueModule = "^.queue"
*.tokenGenerator.serverModule = "^.server"

%contains: stdout
Providing packet provider-0.
Processing packet provider-0.
Pushing packet provider-0 into the queue.
Popping packet provider-0 from the queue.
Collecting packet provider-0.

Running simulation...
Providing packet provider-1.
Processing packet provider-1.
Pushing packet provider-1 into the queue.
Popping packet provider-1 from the queue.
Providing packet provider-2.
Processing packet provider-2.
Pushing packet provider-2 into the queue.
Collecting packet provider-1.
Popping packet provider-2 from the queue.
Providing packet provider-3.
Processing packet provider-3.
Pushing packet provider-3 into the queue.
Collecting packet provider-2.
Popping packet provider-3 from the queue.
Providing packet provider-4.
Processing packet provider-4.
Pushing packet provider-4 into the queue.
Collecting packet provider-3.
Popping packet provider-4 from the queue.
Providing packet provider-5.
Processing packet provider-5.
Pushing packet provider-5 into the queue.
Collecting packet provider-4.
Popping packet provider-5 from the queue.
Providing packet provider-6.
Processing packet provider-6.
Pushing packet provider-6 into the queue.
Collecting packet provider-5.
Popping packet provider-6 from the queue.
Providing packet provider-7.
Processing packet provider-7.
Pushing packet provider-7 into the queue.
Collecting packet provider-6.
Popping packet provider-7 from the queue.
Providing packet provider-8.
Processing packet provider-8.
Pushing packet provider-8 into the queue.
Collecting packet provider-7.
