%description:

TODO

%file: test.ned

import inet.queueing.shaper.LeakyBucket;
import inet.queueing.sink.PassivePacketSink;
import inet.queueing.source.ActivePacketSource;

network TestLeakyBucket
{
    submodules:
        producer: ActivePacketSource {
            @display("p=100,100");
        }
        bucket: LeakyBucket {
            @display("p=200,100");
        }
        consumer: PassivePacketSink {
            @display("p=300,100");
        }
    connections allowunconnected:
        producer.out --> bucket.in;
        bucket.out --> consumer.in;
}

%inifile: omnetpp.ini

[General]
network = TestLeakyBucket
sim-time-limit = 10s
cmdenv-event-banners = false
*.producer.packetLength = 1B
*.producer.productionInterval = uniform(0s, 2s)
*.bucket.server.processingTime = 1s

%# remove formatting
%subst: /\x1B\[[0-9;]*m//

%subst: /\nRunning simulation\.\.\.\n//

%contains-regex: stdout
Producing packet, .*?producer-0.*?
Pushing packet, .*?producer-0.*?
Pulling packet, .*?producer-0.*?
Processing packet started, .*?producer-0.*?
Processing packet ended, .*?producer-0.*?
Consuming packet, .*?producer-0.*?
Producing packet, .*?producer-1.*?
Pushing packet, .*?producer-1.*?
Pulling packet, .*?producer-1.*?
Processing packet started, .*?producer-1.*?
Processing packet ended, .*?producer-1.*?
Consuming packet, .*?producer-1.*?
Producing packet, .*?producer-2.*?
Pushing packet, .*?producer-2.*?
Pulling packet, .*?producer-2.*?
Processing packet started, .*?producer-2.*?
Processing packet ended, .*?producer-2.*?
Consuming packet, .*?producer-2.*?
Producing packet, .*?producer-3.*?
Pushing packet, .*?producer-3.*?
Pulling packet, .*?producer-3.*?
Processing packet started, .*?producer-3.*?
Processing packet ended, .*?producer-3.*?
Consuming packet, .*?producer-3.*?
Producing packet, .*?producer-4.*?
Pushing packet, .*?producer-4.*?
Pulling packet, .*?producer-4.*?
Processing packet started, .*?producer-4.*?
Processing packet ended, .*?producer-4.*?
Consuming packet, .*?producer-4.*?
Producing packet, .*?producer-5.*?
Pushing packet, .*?producer-5.*?
Pulling packet, .*?producer-5.*?
Processing packet started, .*?producer-5.*?
Processing packet ended, .*?producer-5.*?
Consuming packet, .*?producer-5.*?
Producing packet, .*?producer-6.*?
Pushing packet, .*?producer-6.*?
Pulling packet, .*?producer-6.*?
Processing packet started, .*?producer-6.*?
