%description:

TODO

%file: test.ned

import inet.queueing.sink.PassivePacketSink;
import inet.queueing.common.PacketDelayer;
import inet.queueing.source.ActivePacketSource;
import inet.queueing.queue.PacketQueue;
import inet.queueing.server.PacketServer;

module TestMac
{
    gates:
        input lowerIn;
        input upperIn;
        output lowerOut;
        output upperOut;
    submodules:
        queue: PacketQueue;
        server: PacketServer;
    connections:
        upperIn --> queue.in;
        queue.out --> server.in;
        server.out --> lowerOut;
        lowerIn --> upperOut;
}

module TestHost
{
    gates:
        input lowerIn;
        output lowerOut;
    submodules:
        sourceApplication: ActivePacketSource;
        destinationApplication: PassivePacketSink;
        mac: TestMac;
    connections:
    	sourceApplication.out --> mac.upperIn;
    	mac.lowerOut --> lowerOut;
        lowerIn --> mac.lowerIn;
    	mac.upperOut --> destinationApplication.in;
}

module TestCable
{
    gates:
        input aIn;
        output aOut;
        input bIn;
        output bOut;
    submodules:
        aDelayer: PacketDelayer;
        bDelayer: PacketDelayer;
    connections:
        aIn --> aDelayer.in;
        aDelayer.out --> aOut;
        bIn --> bDelayer.in;
        bDelayer.out --> bOut;
}

network TestNetwork
{
    submodules:
        source: TestHost;
        destination: TestHost;
        cable: TestCable;
    connections:
        source.lowerOut --> cable.aIn;
        cable.aOut --> destination.lowerIn;
        destination.lowerOut --> cable.bIn;
        cable.bOut --> source.lowerIn;
}

%inifile: omnetpp.ini

[General]
network = TestNetwork
sim-time-limit = 10s
cmdenv-event-banners = false
cmdenv-log-prefix = "At %ts %N: "
*.*.sourceApplication.packetLength = 1B
*.*.sourceApplication.productionInterval = uniform(0s, 2s)
*.*.mac.server.processingTime = uniform(0s, 2s)
*.cable.*Delayer.delay = uniform(0s, 2s)

%# remove formatting
%subst: /\x1B\[[0-9;]*m//

%subst: /\nRunning simulation\.\.\.\n//

%contains-regex: stdout
At 0s sourceApplication: Producing packet, .*?sourceApplication-0.*?
At 0s queue: Enqueuing packet, .*?sourceApplication-0.*?
At 0s queue: Dequeuing packet, .*?sourceApplication-0.*?
At 0s server: Processing packet started.*?sourceApplication-0.*?
At 0s sourceApplication: Producing packet, .*?sourceApplication-0.*?
At 0s queue: Enqueuing packet, .*?sourceApplication-0.*?
At 0s queue: Dequeuing packet, .*?sourceApplication-0.*?
At 0s server: Processing packet started.*?sourceApplication-0.*?
At 1.097627004609s sourceApplication: Producing packet, .*?sourceApplication-1.*?
At 1.097627004609s queue: Enqueuing packet, .*?sourceApplication-1.*?
At 1.185689232778s server: Processing packet ended.*?sourceApplication-0.*?
At 1.185689232778s aDelayer: Delaying packet, .*?1.715891239699.*?sourceApplication-0.*?
At 1.185689232778s queue: Dequeuing packet, .*?sourceApplication-1.*?
At 1.185689232778s server: Processing packet started.*?sourceApplication-1.*?
At 1.430378729943s sourceApplication: Producing packet, .*?sourceApplication-1.*?
At 1.430378729943s queue: Enqueuing packet, .*?sourceApplication-1.*?
At 1.68853148818s server: Processing packet ended.*?sourceApplication-0.*?
At 1.68853148818s bDelayer: Delaying packet, .*?0.847309593577.*?sourceApplication-0.*?
At 1.68853148818s queue: Dequeuing packet, .*?sourceApplication-1.*?
At 1.68853148818s server: Processing packet started.*?sourceApplication-1.*?
At 2.275455587544s server: Processing packet ended.*?sourceApplication-1.*?
At 2.275455587544s aDelayer: Delaying packet, .*?1.291788230184.*?sourceApplication-1.*?
At 2.303153745365s sourceApplication: Producing packet, .*?sourceApplication-2.*?
At 2.303153745365s queue: Enqueuing packet, .*?sourceApplication-2.*?
At 2.303153745365s queue: Dequeuing packet, .*?sourceApplication-2.*?
At 2.303153745365s server: Processing packet started.*?sourceApplication-2.*?
At 2.535841081757s destinationApplication: Consuming packet, .*?sourceApplication-0.*?
At 2.901580472477s destinationApplication: Consuming packet, .*?sourceApplication-0.*?
At 2.935658880975s server: Processing packet ended.*?sourceApplication-1.*?
At 2.935658880975s bDelayer: Delaying packet, .*?0.595069210511.*?sourceApplication-1.*?
At 3.071917161812s sourceApplication: Producing packet, .*?sourceApplication-3.*?
At 3.071917161812s queue: Enqueuing packet, .*?sourceApplication-3.*?
At 3.124882204458s sourceApplication: Producing packet, .*?sourceApplication-2.*?
At 3.124882204458s queue: Enqueuing packet, .*?sourceApplication-2.*?
At 3.124882204458s queue: Dequeuing packet, .*?sourceApplication-2.*?
At 3.124882204458s server: Processing packet started.*?sourceApplication-2.*?
At 3.178328165319s server: Processing packet ended.*?sourceApplication-2.*?
At 3.178328165319s aDelayer: Delaying packet, .*?0.545312589034.*?sourceApplication-2.*?
At 3.178328165319s queue: Dequeuing packet, .*?sourceApplication-3.*?
At 3.178328165319s server: Processing packet started.*?sourceApplication-3.*?
At 3.238308155909s sourceApplication: Producing packet, .*?sourceApplication-3.*?
At 3.238308155909s queue: Enqueuing packet, .*?sourceApplication-3.*?
At 3.530728091486s destinationApplication: Consuming packet, .*?sourceApplication-1.*?
At 3.567243817728s destinationApplication: Consuming packet, .*?sourceApplication-1.*?
At 3.723640754353s destinationApplication: Consuming packet, .*?sourceApplication-2.*?
At 3.94521120796s server: Processing packet ended.*?sourceApplication-3.*?
At 3.94521120796s aDelayer: Delaying packet, .*?1.583450066857.*?sourceApplication-3.*?
At 4.19363837922s sourceApplication: Producing packet, .*?sourceApplication-4.*?
At 4.19363837922s queue: Enqueuing packet, .*?sourceApplication-4.*?
At 4.855463165325s sourceApplication: Producing packet, .*?sourceApplication-4.*?
At 4.855463165325s queue: Enqueuing packet, .*?sourceApplication-4.*?
At 4.855463165325s queue: Dequeuing packet, .*?sourceApplication-4.*?
At 4.855463165325s server: Processing packet started.*?sourceApplication-4.*?
At 5.052207732573s server: Processing packet ended.*?sourceApplication-2.*?
At 5.052207732573s bDelayer: Delaying packet, .*?1.136089127511.*?sourceApplication-2.*?
At 5.052207732573s queue: Dequeuing packet, .*?sourceApplication-3.*?
At 5.052207732573s server: Processing packet started.*?sourceApplication-3.*?
At 5.528661274817s destinationApplication: Consuming packet, .*?sourceApplication-3.*?
At 5.81541750813s server: Processing packet ended.*?sourceApplication-4.*?
At 5.81541750813s aDelayer: Delaying packet, .*?1.851193266455.*?sourceApplication-4.*?
At 5.817975832149s sourceApplication: Producing packet, .*?sourceApplication-5.*?
At 5.817975832149s queue: Enqueuing packet, .*?sourceApplication-5.*?
At 5.837777318898s server: Processing packet ended.*?sourceApplication-3.*?
At 5.837777318898s bDelayer: Delaying packet, .*?0.142072117422.*?sourceApplication-3.*?
At 5.837777318898s queue: Dequeuing packet, .*?sourceApplication-4.*?
At 5.837777318898s server: Processing packet started.*?sourceApplication-4.*?
At 5.913253008389s sourceApplication: Producing packet, .*?sourceApplication-5.*?
At 5.913253008389s queue: Enqueuing packet, .*?sourceApplication-5.*?
At 5.913253008389s queue: Dequeuing packet, .*?sourceApplication-5.*?
At 5.913253008389s server: Processing packet started.*?sourceApplication-5.*?
At 5.97984943632s destinationApplication: Consuming packet, .*?sourceApplication-3.*?
At 6.087511602325s sourceApplication: Producing packet, .*?sourceApplication-6.*?
At 6.087511602325s queue: Enqueuing packet, .*?sourceApplication-6.*?
At 6.127948400566s sourceApplication: Producing packet, .*?sourceApplication-7.*?
At 6.127948400566s queue: Enqueuing packet, .*?sourceApplication-7.*?
At 6.188296860084s destinationApplication: Consuming packet, .*?sourceApplication-2.*?
At 6.512569642159s server: Processing packet ended.*?sourceApplication-4.*?
At 6.512569642159s bDelayer: Delaying packet, .*?1.665239685681.*?sourceApplication-4.*?
At 6.512569642159s queue: Dequeuing packet, .*?sourceApplication-5.*?
At 6.512569642159s server: Processing packet started.*?sourceApplication-5.*?
At 6.864431475291s sourceApplication: Producing packet, .*?sourceApplication-8.*?
At 6.864431475291s queue: Enqueuing packet, .*?sourceApplication-8.*?
At 7.209596761503s server: Processing packet ended.*?sourceApplication-5.*?
At 7.209596761503s aDelayer: Delaying packet, .*?0.280701554846.*?sourceApplication-5.*?
At 7.209596761503s queue: Dequeuing packet, .*?sourceApplication-6.*?
At 7.209596761503s server: Processing packet started.*?sourceApplication-6.*?
At 7.490133369807s sourceApplication: Producing packet, .*?sourceApplication-6.*?
At 7.490133369807s queue: Enqueuing packet, .*?sourceApplication-6.*?
At 7.490298316349s destinationApplication: Consuming packet, .*?sourceApplication-5.*?
At 7.666610774585s destinationApplication: Consuming packet, .*?sourceApplication-4.*?
At 8.17780932784s destinationApplication: Consuming packet, .*?sourceApplication-4.*?
At 8.420744989069s sourceApplication: Producing packet, .*?sourceApplication-9.*?
At 8.420744989069s queue: Enqueuing packet, .*?sourceApplication-9.*?
At 8.426879950798s server: Processing packet ended.*?sourceApplication-5.*?
At 8.426879950798s bDelayer: Delaying packet, .*?0.947216080036.*?sourceApplication-5.*?
At 8.426879950798s queue: Dequeuing packet, .*?sourceApplication-6.*?
At 8.426879950798s server: Processing packet started.*?sourceApplication-6.*?
At 8.949621052016s server: Processing packet ended.*?sourceApplication-6.*?
At 8.949621052016s aDelayer: Delaying packet, .*?1.601821504999.*?sourceApplication-6.*?
At 8.949621052016s queue: Dequeuing packet, .*?sourceApplication-7.*?
At 8.949621052016s server: Processing packet started.*?sourceApplication-7.*?
At 9.230307871941s sourceApplication: Producing packet, .*?sourceApplication-7.*?
At 9.230307871941s queue: Enqueuing packet, .*?sourceApplication-7.*?
At 9.374096030834s destinationApplication: Consuming packet, .*?sourceApplication-5.*?
At 9.872579777614s server: Processing packet ended.*?sourceApplication-7.*?
At 9.872579777614s aDelayer: Delaying packet, .*?1.561058351304.*?sourceApplication-7.*?
At 9.872579777614s queue: Dequeuing packet, .*?sourceApplication-8.*?
At 9.872579777614s server: Processing packet started.*?sourceApplication-8.*?

<!> Simulation time limit reached -- at t=10s
