%description:

In this test, packets are collected periodically by an active packet sink
(ActivePacketSink). The packets pass through a periodic packet gate if it's
open, otherwise packets are not generated. The packets are provided by a
passive packet source (PassivePacketSource).

%file: test.ned

import inet.queueing.gate.PeriodicGate;
import inet.queueing.sink.ActivePacketSink;
import inet.queueing.source.PassivePacketSource;

network TestProviderCollector
{
    submodules:
        provider: PassivePacketSource {
            @display("p=100,100");
        }
        gate: PeriodicGate {
            @display("p=200,100");
        }
        collector: ActivePacketSink {
            @display("p=300,100");
        }
    connections:
        provider.out --> gate.in;
        gate.out --> collector.in;
}

%inifile: omnetpp.ini

[General]
network = TestProviderCollector
sim-time-limit = 10s
cmdenv-event-banners = false
cmdenv-log-prefix = "At %t: "
*.provider.packetLength = 1B
*.collector.collectionInterval = 1s
*.gate.durations = [1s, 2s]

%# remove formatting
%subst: /\x1B\[[0-9;]*m//

%subst: /\nRunning simulation\.\.\.\n//

%contains-regex: stdout
At 0: Providing packet, .*?provider-0.*?
At 0: Passing through packet, .*?provider-0.*?
At 0: Collecting packet, .*?provider-0.*?
At 1: Closing gate.
At 3: Processing change timer.
At 3: Opening gate.
At 3: Providing packet, .*?provider-1.*?
At 3: Passing through packet, .*?provider-1.*?
At 3: Collecting packet, .*?provider-1.*?
At 4: Closing gate.
At 6: Processing change timer.
At 6: Opening gate.
At 6: Providing packet, .*?provider-2.*?
At 6: Passing through packet, .*?provider-2.*?
At 6: Collecting packet, .*?provider-2.*?
At 7: Closing gate.
At 9: Processing change timer.
At 9: Opening gate.
At 9: Providing packet, .*?provider-3.*?
At 9: Passing through packet, .*?provider-3.*?
At 9: Collecting packet, .*?provider-3.*?
At 10: Closing gate.
