%description:

In this test, packets are pushed synchronously, then they are sent asynhronously,
and finally they are pushed again synchronously.

%file: test.ned

import inet.queueing.common.PacketPushToSend;
import inet.queueing.common.PacketDelayer;
import inet.queueing.common.PacketSendToPush;
import inet.queueing.sink.PassivePacketSink;
import inet.queueing.source.ActivePacketSource;

network TestPushSendPush
{
    submodules:
        producer: ActivePacketSource {
            @display("p=100,100");
        }
        pushToSend: PacketPushToSend {
            @display("p=200,100");
        }
        delayer: PacketDelayer {
            @display("p=300,100");
        }
        sendToPush: PacketSendToPush {
            @display("p=400,100");
        }
        consumer: PassivePacketSink {
            @display("p=500,100");
        }
    connections allowunconnected:
        producer.out --> pushToSend.in;
        pushToSend.out --> delayer.in;
        delayer.out --> sendToPush.in;
        sendToPush.out --> consumer.in;
}

%inifile: omnetpp.ini

[General]
network = TestPushSendPush
sim-time-limit = 10s
cmdenv-event-banners = false
cmdenv-log-prefix = "At %ts %N: "
*.producer.packetLength = 100B
*.producer.productionInterval = 1s
*.delayer.delay = 1s

%# remove formatting
%subst: /\x1B\[[0-9;]*m//

%subst: /\nRunning simulation\.\.\.\n//

%contains-regex: stdout
At 0s producer: Producing packet, .*?producer-0.*?
At 0s delayer: Delaying packet, .*?producer-0.*?
At 1s producer: Producing packet, .*?producer-1.*?
At 1s delayer: Delaying packet, .*?producer-1.*?
At 1s consumer: Consuming packet, .*?producer-0.*?
At 2s producer: Producing packet, .*?producer-2.*?
At 2s delayer: Delaying packet, .*?producer-2.*?
At 2s consumer: Consuming packet, .*?producer-1.*?
At 3s producer: Producing packet, .*?producer-3.*?
At 3s delayer: Delaying packet, .*?producer-3.*?
At 3s consumer: Consuming packet, .*?producer-2.*?
At 4s producer: Producing packet, .*?producer-4.*?
At 4s delayer: Delaying packet, .*?producer-4.*?
At 4s consumer: Consuming packet, .*?producer-3.*?
At 5s producer: Producing packet, .*?producer-5.*?
At 5s delayer: Delaying packet, .*?producer-5.*?
At 5s consumer: Consuming packet, .*?producer-4.*?
At 6s producer: Producing packet, .*?producer-6.*?
At 6s delayer: Delaying packet, .*?producer-6.*?
At 6s consumer: Consuming packet, .*?producer-5.*?
At 7s producer: Producing packet, .*?producer-7.*?
At 7s delayer: Delaying packet, .*?producer-7.*?
At 7s consumer: Consuming packet, .*?producer-6.*?
At 8s producer: Producing packet, .*?producer-8.*?
At 8s delayer: Delaying packet, .*?producer-8.*?
At 8s consumer: Consuming packet, .*?producer-7.*?
At 9s producer: Producing packet, .*?producer-9.*?
At 9s delayer: Delaying packet, .*?producer-9.*?
At 9s consumer: Consuming packet, .*?producer-8.*?
At 10s producer: Producing packet, .*?producer-10.*?
At 10s delayer: Delaying packet, .*?producer-10.*?
At 10s consumer: Consuming packet, .*?producer-9.*?

<!> Simulation time limit reached -- at t=10s
