%description:

TODO

%file: test.ned

import inet.queueing.sink.ActivePacketSink;
import inet.queueing.queue.PacketQueue;
import inet.queueing.source.QueueFiller;

network TestQueueFiller
{
    submodules:
        filler: QueueFiller {
            @display("p=100,100");
        }
        queue: PacketQueue {
            @display("p=200,100");
        }
        consumer: ActivePacketSink {
            @display("p=300,100");
        }
    connections allowunconnected:
    	filler.out --> queue.in;
    	queue.out --> consumer.in;
}

%inifile: omnetpp.ini

[General]
network = TestQueueFiller
sim-time-limit = 10s
cmdenv-event-banners = false
*.filler.provider.packetLength = 1B
*.filler.tokenGenerator.queueModule = "queue"
*.consumer.collectionInterval = 1s

%# remove formatting
%subst: /\x1B\[[0-9;]*m//

%subst: /\nRunning simulation\.\.\.\n//

%contains-regex: stdout
Providing packet, .*?provider-0.*?
Processing packet, .*?provider-0.*?
Pushing packet, .*?provider-0.*?
Pulling packet, .*?provider-0.*?
Collecting packet, .*?provider-0.*?
Providing packet, .*?provider-1.*?
Processing packet, .*?provider-1.*?
Pushing packet, .*?provider-1.*?
Pulling packet, .*?provider-1.*?
Providing packet, .*?provider-2.*?
Processing packet, .*?provider-2.*?
Pushing packet, .*?provider-2.*?
Collecting packet, .*?provider-1.*?
Pulling packet, .*?provider-2.*?
Providing packet, .*?provider-3.*?
Processing packet, .*?provider-3.*?
Pushing packet, .*?provider-3.*?
Collecting packet, .*?provider-2.*?
Pulling packet, .*?provider-3.*?
Providing packet, .*?provider-4.*?
Processing packet, .*?provider-4.*?
Pushing packet, .*?provider-4.*?
Collecting packet, .*?provider-3.*?
Pulling packet, .*?provider-4.*?
Providing packet, .*?provider-5.*?
Processing packet, .*?provider-5.*?
Pushing packet, .*?provider-5.*?
Collecting packet, .*?provider-4.*?
Pulling packet, .*?provider-5.*?
Providing packet, .*?provider-6.*?
Processing packet, .*?provider-6.*?
Pushing packet, .*?provider-6.*?
Collecting packet, .*?provider-5.*?
Pulling packet, .*?provider-6.*?
Providing packet, .*?provider-7.*?
Processing packet, .*?provider-7.*?
Pushing packet, .*?provider-7.*?
Collecting packet, .*?provider-6.*?
Pulling packet, .*?provider-7.*?
Providing packet, .*?provider-8.*?
Processing packet, .*?provider-8.*?
Pushing packet, .*?provider-8.*?
Collecting packet, .*?provider-7.*?
Pulling packet, .*?provider-8.*?
Providing packet, .*?provider-9.*?
Processing packet, .*?provider-9.*?
Pushing packet, .*?provider-9.*?
Collecting packet, .*?provider-8.*?
Pulling packet, .*?provider-9.*?
Providing packet, .*?provider-10.*?
Processing packet, .*?provider-10.*?
Pushing packet, .*?provider-10.*?
Collecting packet, .*?provider-9.*?
Pulling packet, .*?provider-10.*?
Providing packet, .*?provider-11.*?
Processing packet, .*?provider-11.*?
Pushing packet, .*?provider-11.*?
Collecting packet, .*?provider-10.*?
