%description:

TODO
check
%file: test.ned

import inet.queueing.buffer.PriorityBuffer;
import inet.queueing.queue.PacketQueue;
import inet.queueing.sink.ActivePacketSink;
import inet.queueing.source.ActivePacketSource;
import inet.queueing.filter.RedDropper;

network TestRedDropper
{
    submodules:
        producer: ActivePacketSource {
            @display("p=100,100");
        }
        dropper: RedDropper {
            @display("p=300,100");
        }
        queue: PacketQueue {
            @display("p=500,100");
        }
        collector: ActivePacketSink {
            @display("p=700,100");
        }
    connections:
        producer.out --> dropper.in;
        dropper.out --> queue.in;
        queue.out --> collector.in;
}

%inifile: omnetpp.ini

[General]
network = TestRedDropper
sim-time-limit = 100s
cmdenv-event-banners = false
*.producer.packetLength = 1B
*.producer.productionInterval = exponential(1s)
*.dropper.minth = 1
*.dropper.maxth = 3
*.dropper.maxp = 0.1
*.dropper.wq = 0.5
*.collector.collectionInterval = exponential(1s)

%# remove formatting
%subst: /\x1B\[[0-9;]*m//

%subst: /\nRunning simulation\.\.\.\n//

%contains-regex: stdout
Producing packet, .*?producer-1.*?
Passing through packet, .*?producer-1.*?
Pushing packet, .*?producer-1.*?
Pulling packet, .*?producer-1.*?
Collecting packet, .*?producer-1.*?
Producing packet, .*?producer-2.*?
Passing through packet, .*?producer-2.*?
Pushing packet, .*?producer-2.*?
Pulling packet, .*?producer-2.*?
Collecting packet, .*?producer-2.*?
Producing packet, .*?producer-3.*?
Passing through packet, .*?producer-3.*?
Pushing packet, .*?producer-3.*?
Producing packet, .*?producer-4.*?
Passing through packet, .*?producer-4.*?
Pushing packet, .*?producer-4.*?
Pulling packet, .*?producer-3.*?
Collecting packet, .*?producer-3.*?
Pulling packet, .*?producer-4.*?
Collecting packet, .*?producer-4.*?
Producing packet, .*?producer-5.*?
Passing through packet, .*?producer-5.*?
Pushing packet, .*?producer-5.*?
Pulling packet, .*?producer-5.*?
Collecting packet, .*?producer-5.*?
Producing packet, .*?producer-6.*?
Passing through packet, .*?producer-6.*?
Pushing packet, .*?producer-6.*?
Pulling packet, .*?producer-6.*?
Collecting packet, .*?producer-6.*?
Producing packet, .*?producer-7.*?
Passing through packet, .*?producer-7.*?
Pushing packet, .*?producer-7.*?
Pulling packet, .*?producer-7.*?
Collecting packet, .*?producer-7.*?
Producing packet, .*?producer-8.*?
Passing through packet, .*?producer-8.*?
Pushing packet, .*?producer-8.*?
Pulling packet, .*?producer-8.*?
Collecting packet, .*?producer-8.*?
Producing packet, .*?producer-9.*?
Passing through packet, .*?producer-9.*?
Pushing packet, .*?producer-9.*?
Pulling packet, .*?producer-9.*?
Collecting packet, .*?producer-9.*?
Producing packet, .*?producer-10.*?
Passing through packet, .*?producer-10.*?
Pushing packet, .*?producer-10.*?
Pulling packet, .*?producer-10.*?
Collecting packet, .*?producer-10.*?
Producing packet, .*?producer-11.*?
Passing through packet, .*?producer-11.*?
Pushing packet, .*?producer-11.*?
Pulling packet, .*?producer-11.*?
Collecting packet, .*?producer-11.*?
Producing packet, .*?producer-12.*?
Passing through packet, .*?producer-12.*?
Pushing packet, .*?producer-12.*?
Pulling packet, .*?producer-12.*?
Collecting packet, .*?producer-12.*?
Producing packet, .*?producer-13.*?
Passing through packet, .*?producer-13.*?
Pushing packet, .*?producer-13.*?
Pulling packet, .*?producer-13.*?
Collecting packet, .*?producer-13.*?
Producing packet, .*?producer-14.*?
Passing through packet, .*?producer-14.*?
Pushing packet, .*?producer-14.*?
Pulling packet, .*?producer-14.*?
Collecting packet, .*?producer-14.*?
Producing packet, .*?producer-15.*?
Passing through packet, .*?producer-15.*?
Pushing packet, .*?producer-15.*?
Producing packet, .*?producer-16.*?
Passing through packet, .*?producer-16.*?
Pushing packet, .*?producer-16.*?
Pulling packet, .*?producer-15.*?
Collecting packet, .*?producer-15.*?
Pulling packet, .*?producer-16.*?
Collecting packet, .*?producer-16.*?
Producing packet, .*?producer-17.*?
Passing through packet, .*?producer-17.*?
Pushing packet, .*?producer-17.*?
Pulling packet, .*?producer-17.*?
Collecting packet, .*?producer-17.*?
Producing packet, .*?producer-18.*?
Passing through packet, .*?producer-18.*?
Pushing packet, .*?producer-18.*?
Pulling packet, .*?producer-18.*?
Collecting packet, .*?producer-18.*?
Producing packet, .*?producer-19.*?
Passing through packet, .*?producer-19.*?
Pushing packet, .*?producer-19.*?
Pulling packet, .*?producer-19.*?
Collecting packet, .*?producer-19.*?
Producing packet, .*?producer-20.*?
Passing through packet, .*?producer-20.*?
Pushing packet, .*?producer-20.*?
Pulling packet, .*?producer-20.*?
Collecting packet, .*?producer-20.*?
Producing packet, .*?producer-21.*?
Passing through packet, .*?producer-21.*?
Pushing packet, .*?producer-21.*?
Pulling packet, .*?producer-21.*?
Collecting packet, .*?producer-21.*?
Producing packet, .*?producer-22.*?
Passing through packet, .*?producer-22.*?
Pushing packet, .*?producer-22.*?
Pulling packet, .*?producer-22.*?
Collecting packet, .*?producer-22.*?
Producing packet, .*?producer-23.*?
Passing through packet, .*?producer-23.*?
Pushing packet, .*?producer-23.*?
Pulling packet, .*?producer-23.*?
Collecting packet, .*?producer-23.*?
Producing packet, .*?producer-24.*?
Passing through packet, .*?producer-24.*?
Pushing packet, .*?producer-24.*?
Pulling packet, .*?producer-24.*?
Collecting packet, .*?producer-24.*?
Producing packet, .*?producer-25.*?
Passing through packet, .*?producer-25.*?
Pushing packet, .*?producer-25.*?
Producing packet, .*?producer-26.*?
Passing through packet, .*?producer-26.*?
Pushing packet, .*?producer-26.*?
Pulling packet, .*?producer-25.*?
Collecting packet, .*?producer-25.*?
Pulling packet, .*?producer-26.*?
Collecting packet, .*?producer-26.*?
Producing packet, .*?producer-27.*?
Passing through packet, .*?producer-27.*?
Pushing packet, .*?producer-27.*?
Pulling packet, .*?producer-27.*?
Collecting packet, .*?producer-27.*?
Producing packet, .*?producer-28.*?
Passing through packet, .*?producer-28.*?
Pushing packet, .*?producer-28.*?
Pulling packet, .*?producer-28.*?
Collecting packet, .*?producer-28.*?
Producing packet, .*?producer-29.*?
Passing through packet, .*?producer-29.*?
Pushing packet, .*?producer-29.*?
Pulling packet, .*?producer-29.*?
Collecting packet, .*?producer-29.*?
Producing packet, .*?producer-30.*?
Passing through packet, .*?producer-30.*?
Pushing packet, .*?producer-30.*?
Pulling packet, .*?producer-30.*?
Collecting packet, .*?producer-30.*?
Producing packet, .*?producer-31.*?
Passing through packet, .*?producer-31.*?
Pushing packet, .*?producer-31.*?
Pulling packet, .*?producer-31.*?
Collecting packet, .*?producer-31.*?
Producing packet, .*?producer-32.*?
Passing through packet, .*?producer-32.*?
Pushing packet, .*?producer-32.*?
Pulling packet, .*?producer-32.*?
Collecting packet, .*?producer-32.*?
Producing packet, .*?producer-33.*?
Passing through packet, .*?producer-33.*?
Pushing packet, .*?producer-33.*?
Pulling packet, .*?producer-33.*?
Collecting packet, .*?producer-33.*?
Producing packet, .*?producer-34.*?
Passing through packet, .*?producer-34.*?
Pushing packet, .*?producer-34.*?
Pulling packet, .*?producer-34.*?
Collecting packet, .*?producer-34.*?
Producing packet, .*?producer-35.*?
Passing through packet, .*?producer-35.*?
Pushing packet, .*?producer-35.*?
Pulling packet, .*?producer-35.*?
Collecting packet, .*?producer-35.*?
Producing packet, .*?producer-36.*?
Passing through packet, .*?producer-36.*?
Pushing packet, .*?producer-36.*?
Pulling packet, .*?producer-36.*?
Collecting packet, .*?producer-36.*?
Producing packet, .*?producer-37.*?
Passing through packet, .*?producer-37.*?
Pushing packet, .*?producer-37.*?
Pulling packet, .*?producer-37.*?
Collecting packet, .*?producer-37.*?
Producing packet, .*?producer-38.*?
Passing through packet, .*?producer-38.*?
Pushing packet, .*?producer-38.*?
Pulling packet, .*?producer-38.*?
Collecting packet, .*?producer-38.*?
Producing packet, .*?producer-39.*?
Passing through packet, .*?producer-39.*?
Pushing packet, .*?producer-39.*?
Pulling packet, .*?producer-39.*?
Collecting packet, .*?producer-39.*?
Producing packet, .*?producer-40.*?
Passing through packet, .*?producer-40.*?
Pushing packet, .*?producer-40.*?
Pulling packet, .*?producer-40.*?
Collecting packet, .*?producer-40.*?
Producing packet, .*?producer-41.*?
Passing through packet, .*?producer-41.*?
Pushing packet, .*?producer-41.*?
Pulling packet, .*?producer-41.*?
Collecting packet, .*?producer-41.*?
Producing packet, .*?producer-42.*?
Passing through packet, .*?producer-42.*?
Pushing packet, .*?producer-42.*?
Producing packet, .*?producer-43.*?
Passing through packet, .*?producer-43.*?
Pushing packet, .*?producer-43.*?
Producing packet, .*?producer-44.*?
Passing through packet, .*?producer-44.*?
Pushing packet, .*?producer-44.*?
Producing packet, .*?producer-45.*?
Queue length >= capacity, .*?queueLength.*? = 3, .*?packetCapacity.*? = 3.
Filtering out packet, .*?producer-45.*?
Pulling packet, .*?producer-42.*?
Collecting packet, .*?producer-42.*?
Producing packet, .*?producer-46.*?
Passing through packet, .*?producer-46.*?
Pushing packet, .*?producer-46.*?
Pulling packet, .*?producer-43.*?
Collecting packet, .*?producer-43.*?
Pulling packet, .*?producer-44.*?
Collecting packet, .*?producer-44.*?
Producing packet, .*?producer-47.*?
Passing through packet, .*?producer-47.*?
Pushing packet, .*?producer-47.*?
Producing packet, .*?producer-48.*?
Passing through packet, .*?producer-48.*?
Pushing packet, .*?producer-48.*?
Pulling packet, .*?producer-46.*?
Collecting packet, .*?producer-46.*?
Producing packet, .*?producer-49.*?
Passing through packet, .*?producer-49.*?
Pushing packet, .*?producer-49.*?
Pulling packet, .*?producer-47.*?
Collecting packet, .*?producer-47.*?
Producing packet, .*?producer-50.*?
Passing through packet, .*?producer-50.*?
Pushing packet, .*?producer-50.*?
Pulling packet, .*?producer-48.*?
Collecting packet, .*?producer-48.*?
Producing packet, .*?producer-51.*?
Passing through packet, .*?producer-51.*?
Pushing packet, .*?producer-51.*?
Producing packet, .*?producer-52.*?
Queue length >= capacity, .*?queueLength.*? = 3, .*?packetCapacity.*? = 3.
Filtering out packet, .*?producer-52.*?
Pulling packet, .*?producer-49.*?
Collecting packet, .*?producer-49.*?
Pulling packet, .*?producer-50.*?
Collecting packet, .*?producer-50.*?
Producing packet, .*?producer-53.*?
Passing through packet, .*?producer-53.*?
Pushing packet, .*?producer-53.*?
Producing packet, .*?producer-54.*?
Passing through packet, .*?producer-54.*?
Pushing packet, .*?producer-54.*?
Pulling packet, .*?producer-51.*?
Collecting packet, .*?producer-51.*?
Pulling packet, .*?producer-53.*?
Collecting packet, .*?producer-53.*?
Producing packet, .*?producer-55.*?
Passing through packet, .*?producer-55.*?
Pushing packet, .*?producer-55.*?
Pulling packet, .*?producer-54.*?
Collecting packet, .*?producer-54.*?
Producing packet, .*?producer-56.*?
Passing through packet, .*?producer-56.*?
Pushing packet, .*?producer-56.*?
Pulling packet, .*?producer-55.*?
Collecting packet, .*?producer-55.*?
Pulling packet, .*?producer-56.*?
Collecting packet, .*?producer-56.*?
Producing packet, .*?producer-57.*?
Passing through packet, .*?producer-57.*?
Pushing packet, .*?producer-57.*?
Pulling packet, .*?producer-57.*?
Collecting packet, .*?producer-57.*?
Producing packet, .*?producer-58.*?
Passing through packet, .*?producer-58.*?
Pushing packet, .*?producer-58.*?
Pulling packet, .*?producer-58.*?
Collecting packet, .*?producer-58.*?
Producing packet, .*?producer-59.*?
Passing through packet, .*?producer-59.*?
Pushing packet, .*?producer-59.*?
Pulling packet, .*?producer-59.*?
Collecting packet, .*?producer-59.*?
Producing packet, .*?producer-60.*?
Passing through packet, .*?producer-60.*?
Pushing packet, .*?producer-60.*?
Pulling packet, .*?producer-60.*?
Collecting packet, .*?producer-60.*?
Producing packet, .*?producer-61.*?
Passing through packet, .*?producer-61.*?
Pushing packet, .*?producer-61.*?
Pulling packet, .*?producer-61.*?
Collecting packet, .*?producer-61.*?
Producing packet, .*?producer-62.*?
Passing through packet, .*?producer-62.*?
Pushing packet, .*?producer-62.*?
Producing packet, .*?producer-63.*?
Passing through packet, .*?producer-63.*?
Pushing packet, .*?producer-63.*?
Producing packet, .*?producer-64.*?
Passing through packet, .*?producer-64.*?
Pushing packet, .*?producer-64.*?
Pulling packet, .*?producer-62.*?
Collecting packet, .*?producer-62.*?
Producing packet, .*?producer-65.*?
Passing through packet, .*?producer-65.*?
Pushing packet, .*?producer-65.*?
Producing packet, .*?producer-66.*?
Queue length >= capacity, .*?queueLength.*? = 3, .*?packetCapacity.*? = 3.
Filtering out packet, .*?producer-66.*?
Pulling packet, .*?producer-63.*?
Collecting packet, .*?producer-63.*?
Pulling packet, .*?producer-64.*?
Collecting packet, .*?producer-64.*?
Pulling packet, .*?producer-65.*?
Collecting packet, .*?producer-65.*?
Producing packet, .*?producer-67.*?
Passing through packet, .*?producer-67.*?
Pushing packet, .*?producer-67.*?
Pulling packet, .*?producer-67.*?
Collecting packet, .*?producer-67.*?
Producing packet, .*?producer-68.*?
Passing through packet, .*?producer-68.*?
Pushing packet, .*?producer-68.*?
Pulling packet, .*?producer-68.*?
Collecting packet, .*?producer-68.*?
Producing packet, .*?producer-69.*?
Passing through packet, .*?producer-69.*?
Pushing packet, .*?producer-69.*?
Pulling packet, .*?producer-69.*?
Collecting packet, .*?producer-69.*?
Producing packet, .*?producer-70.*?
Passing through packet, .*?producer-70.*?
Pushing packet, .*?producer-70.*?
Pulling packet, .*?producer-70.*?
Collecting packet, .*?producer-70.*?
Producing packet, .*?producer-71.*?
Passing through packet, .*?producer-71.*?
Pushing packet, .*?producer-71.*?
Producing packet, .*?producer-72.*?
Passing through packet, .*?producer-72.*?
Pushing packet, .*?producer-72.*?
Pulling packet, .*?producer-71.*?
Collecting packet, .*?producer-71.*?
Pulling packet, .*?producer-72.*?
Collecting packet, .*?producer-72.*?
Producing packet, .*?producer-73.*?
Passing through packet, .*?producer-73.*?
Pushing packet, .*?producer-73.*?
Pulling packet, .*?producer-73.*?
Collecting packet, .*?producer-73.*?
Producing packet, .*?producer-74.*?
Passing through packet, .*?producer-74.*?
Pushing packet, .*?producer-74.*?
Producing packet, .*?producer-75.*?
Passing through packet, .*?producer-75.*?
Pushing packet, .*?producer-75.*?
Pulling packet, .*?producer-74.*?
Collecting packet, .*?producer-74.*?
Pulling packet, .*?producer-75.*?
Collecting packet, .*?producer-75.*?
Producing packet, .*?producer-76.*?
Passing through packet, .*?producer-76.*?
Pushing packet, .*?producer-76.*?
Producing packet, .*?producer-77.*?
Passing through packet, .*?producer-77.*?
Pushing packet, .*?producer-77.*?
Pulling packet, .*?producer-76.*?
Collecting packet, .*?producer-76.*?
Pulling packet, .*?producer-77.*?
Collecting packet, .*?producer-77.*?
Producing packet, .*?producer-78.*?
Passing through packet, .*?producer-78.*?
Pushing packet, .*?producer-78.*?
Pulling packet, .*?producer-78.*?
Collecting packet, .*?producer-78.*?
Producing packet, .*?producer-79.*?
Passing through packet, .*?producer-79.*?
Pushing packet, .*?producer-79.*?
Pulling packet, .*?producer-79.*?
Collecting packet, .*?producer-79.*?
Producing packet, .*?producer-80.*?
Passing through packet, .*?producer-80.*?
Pushing packet, .*?producer-80.*?
Producing packet, .*?producer-81.*?
Passing through packet, .*?producer-81.*?
Pushing packet, .*?producer-81.*?
Producing packet, .*?producer-82.*?
Passing through packet, .*?producer-82.*?
Pushing packet, .*?producer-82.*?
Pulling packet, .*?producer-80.*?
Collecting packet, .*?producer-80.*?
Pulling packet, .*?producer-81.*?
Collecting packet, .*?producer-81.*?
Producing packet, .*?producer-83.*?
Passing through packet, .*?producer-83.*?
Pushing packet, .*?producer-83.*?
Producing packet, .*?producer-84.*?
Passing through packet, .*?producer-84.*?
Pushing packet, .*?producer-84.*?
Pulling packet, .*?producer-82.*?
Collecting packet, .*?producer-82.*?
Pulling packet, .*?producer-83.*?
Collecting packet, .*?producer-83.*?
Pulling packet, .*?producer-84.*?
Collecting packet, .*?producer-84.*?
Producing packet, .*?producer-85.*?
Passing through packet, .*?producer-85.*?
Pushing packet, .*?producer-85.*?
Pulling packet, .*?producer-85.*?
Collecting packet, .*?producer-85.*?
Producing packet, .*?producer-86.*?
Passing through packet, .*?producer-86.*?
Pushing packet, .*?producer-86.*?
Pulling packet, .*?producer-86.*?
Collecting packet, .*?producer-86.*?
Producing packet, .*?producer-87.*?
Passing through packet, .*?producer-87.*?
Pushing packet, .*?producer-87.*?
