%description:

This test contains a simplified version of a client/server and a request/response
based communication.

Request packets are produced periodically and randomly by an active packet
source (ActivePacketSource) in the client. The generated requests fall into one of
two categories based on the data they contain.

The server processes requests in order, one by one, using a compound consumer
(RequestConsumer). Each request is first classified based on the data it contains,
and then a certain number of tokens are generated as the request is consumed.

The tokens are added to a response server in a compound producer (ResponseProducer).
The response producer generates different traffic randomly over a period of time
for each kind of request.

The client consumes the response packets by a passive packet sink (PassivePacketSink).

%file: test.ned

import inet.queueing.sink.RequestConsumer;
import inet.queueing.sink.PassivePacketSink;
import inet.queueing.source.ActivePacketSource;
import inet.queueing.source.ResponseProducer;

network TestRequestResponse
{
    submodules:
        requestProducer: ActivePacketSource {
            @display("p=200,100");
        }
        responseConsumer: PassivePacketSink {
            @display("p=400,100");
        }
        requestConsumer: RequestConsumer {
            @display("p=200,200");
        }
        responseProducer: ResponseProducer {
            @display("p=400,200");
        }
    connections allowunconnected:
    	requestProducer.out --> requestConsumer.in;
        responseProducer.out --> responseConsumer.in;
}

%file: Test.cc
#include "inet/queueing/function/PacketClassifierFunction.h"
#include "inet/common/packet/Packet.h"

using namespace inet; 

static int classifyRequest(Packet *packet)
{
    return packet->getId() % 2;
}

Register_Packet_Classifier_Function(RequestClassifier, classifyRequest);

%inifile: omnetpp.ini

[General]
network = TestRequestResponse
sim-time-limit = 100s
cmdenv-event-banners = false
*.requestProducer.packetLength = 1B
*.requestProducer.productionInterval = uniform(0s, 2s)
*.requestConsumer.numKind = 2
*.requestConsumer.classifier.classifierClass = "RequestClassifier"
*.requestConsumer.responseProducerModule = "^.responseProducer"
*.requestConsumer.tokenGenerator[0].numTokensPerPacket = 10
*.requestConsumer.tokenGenerator[1].numTokensPerPacket = 10
*.responseProducer.numKind = 2
*.responseProducer.provider[0].packetLength = intuniform(1B, 10B)
*.responseProducer.provider[0].providingInterval = uniform(0s, 0.2s)
*.responseProducer.provider[1].packetLength = intuniform(1B, 100B)
*.responseProducer.provider[1].providingInterval = uniform(0s, 0.2s)

%contains: stdout
Producing packet requestProducer-0.
Pushing packet requestProducer-0 into the queue.
Popping packet requestProducer-0 from the queue.
Processing packet requestProducer-0 started.

Running simulation...
Processing packet requestProducer-0 ended.
Classifying packet requestProducer-0.
Providing packet provider[1]-0.
Processing packet provider[1]-0.
Forwarding pushed packet provider[1]-0.
Consuming packet provider[1]-0.
Providing packet provider[1]-1.
Processing packet provider[1]-1.
Forwarding pushed packet provider[1]-1.
Consuming packet provider[1]-1.
Providing packet provider[1]-2.
Processing packet provider[1]-2.
Forwarding pushed packet provider[1]-2.
Consuming packet provider[1]-2.
Providing packet provider[1]-3.
Processing packet provider[1]-3.
Forwarding pushed packet provider[1]-3.
Consuming packet provider[1]-3.
Providing packet provider[1]-4.
Processing packet provider[1]-4.
Forwarding pushed packet provider[1]-4.
Consuming packet provider[1]-4.
Providing packet provider[1]-5.
Processing packet provider[1]-5.
Forwarding pushed packet provider[1]-5.
Consuming packet provider[1]-5.
Providing packet provider[1]-6.
Processing packet provider[1]-6.
Forwarding pushed packet provider[1]-6.
Consuming packet provider[1]-6.
Providing packet provider[1]-7.
Processing packet provider[1]-7.
Forwarding pushed packet provider[1]-7.
Consuming packet provider[1]-7.
Providing packet provider[1]-8.
Processing packet provider[1]-8.
Forwarding pushed packet provider[1]-8.
Consuming packet provider[1]-8.
Providing packet provider[1]-9.
Processing packet provider[1]-9.
Forwarding pushed packet provider[1]-9.
Consuming packet provider[1]-9.
Producing packet requestProducer-1.
Pushing packet requestProducer-1 into the queue.
Popping packet requestProducer-1 from the queue.
Processing packet requestProducer-1 started.
Processing packet requestProducer-1 ended.
Classifying packet requestProducer-1.
Providing packet provider[0]-0.
Processing packet provider[0]-0.
Forwarding pushed packet provider[0]-0.
Consuming packet provider[0]-0.
Providing packet provider[0]-1.
Processing packet provider[0]-1.
Forwarding pushed packet provider[0]-1.
Consuming packet provider[0]-1.
Providing packet provider[0]-2.
Processing packet provider[0]-2.
Forwarding pushed packet provider[0]-2.
Consuming packet provider[0]-2.
Providing packet provider[0]-3.
Processing packet provider[0]-3.
Forwarding pushed packet provider[0]-3.
Consuming packet provider[0]-3.
Providing packet provider[0]-4.
Processing packet provider[0]-4.
Forwarding pushed packet provider[0]-4.
Consuming packet provider[0]-4.
Providing packet provider[0]-5.
Processing packet provider[0]-5.
Forwarding pushed packet provider[0]-5.
Consuming packet provider[0]-5.
Providing packet provider[0]-6.
Processing packet provider[0]-6.
Forwarding pushed packet provider[0]-6.
Consuming packet provider[0]-6.
Providing packet provider[0]-7.
Processing packet provider[0]-7.
Forwarding pushed packet provider[0]-7.
Consuming packet provider[0]-7.
Providing packet provider[0]-8.
Processing packet provider[0]-8.
Forwarding pushed packet provider[0]-8.
Consuming packet provider[0]-8.
Providing packet provider[0]-9.
Processing packet provider[0]-9.
Forwarding pushed packet provider[0]-9.
Consuming packet provider[0]-9.
Producing packet requestProducer-2.
Pushing packet requestProducer-2 into the queue.
Popping packet requestProducer-2 from the queue.
Processing packet requestProducer-2 started.
Processing packet requestProducer-2 ended.
Classifying packet requestProducer-2.
Providing packet provider[1]-10.
Processing packet provider[1]-10.
Forwarding pushed packet provider[1]-10.
Consuming packet provider[1]-10.
Providing packet provider[1]-11.
Processing packet provider[1]-11.
Forwarding pushed packet provider[1]-11.
Consuming packet provider[1]-11.
Providing packet provider[1]-12.
Processing packet provider[1]-12.
Forwarding pushed packet provider[1]-12.
Consuming packet provider[1]-12.
Producing packet requestProducer-3.
Pushing packet requestProducer-3 into the queue.
Providing packet provider[1]-13.
Processing packet provider[1]-13.
Forwarding pushed packet provider[1]-13.
Consuming packet provider[1]-13.
Providing packet provider[1]-14.
Processing packet provider[1]-14.
Forwarding pushed packet provider[1]-14.
Consuming packet provider[1]-14.
Providing packet provider[1]-15.
Processing packet provider[1]-15.
Forwarding pushed packet provider[1]-15.
Consuming packet provider[1]-15.
Providing packet provider[1]-16.
Processing packet provider[1]-16.
Forwarding pushed packet provider[1]-16.
Consuming packet provider[1]-16.
Providing packet provider[1]-17.
Processing packet provider[1]-17.
Forwarding pushed packet provider[1]-17.
Consuming packet provider[1]-17.
Providing packet provider[1]-18.
Processing packet provider[1]-18.
Forwarding pushed packet provider[1]-18.
Consuming packet provider[1]-18.
Providing packet provider[1]-19.
Processing packet provider[1]-19.
Forwarding pushed packet provider[1]-19.
Consuming packet provider[1]-19.
Popping packet requestProducer-3 from the queue.
Processing packet requestProducer-3 started.
Processing packet requestProducer-3 ended.
Classifying packet requestProducer-3.
Providing packet provider[0]-10.
Processing packet provider[0]-10.
Forwarding pushed packet provider[0]-10.
Consuming packet provider[0]-10.
Providing packet provider[0]-11.
Processing packet provider[0]-11.
Forwarding pushed packet provider[0]-11.
Consuming packet provider[0]-11.
Providing packet provider[0]-12.
Processing packet provider[0]-12.
Forwarding pushed packet provider[0]-12.
Consuming packet provider[0]-12.
Providing packet provider[0]-13.
Processing packet provider[0]-13.
Forwarding pushed packet provider[0]-13.
Consuming packet provider[0]-13.
Providing packet provider[0]-14.
Processing packet provider[0]-14.
Forwarding pushed packet provider[0]-14.
Consuming packet provider[0]-14.
Producing packet requestProducer-4.
Pushing packet requestProducer-4 into the queue.
Providing packet provider[0]-15.
Processing packet provider[0]-15.
Forwarding pushed packet provider[0]-15.
Consuming packet provider[0]-15.
Providing packet provider[0]-16.
Processing packet provider[0]-16.
Forwarding pushed packet provider[0]-16.
Consuming packet provider[0]-16.
Providing packet provider[0]-17.
Processing packet provider[0]-17.
Forwarding pushed packet provider[0]-17.
Consuming packet provider[0]-17.
Providing packet provider[0]-18.
Processing packet provider[0]-18.
Forwarding pushed packet provider[0]-18.
Consuming packet provider[0]-18.
Providing packet provider[0]-19.
Processing packet provider[0]-19.
Forwarding pushed packet provider[0]-19.
Consuming packet provider[0]-19.
Popping packet requestProducer-4 from the queue.
Processing packet requestProducer-4 started.
Processing packet requestProducer-4 ended.
Classifying packet requestProducer-4.
Providing packet provider[1]-20.
Processing packet provider[1]-20.
Forwarding pushed packet provider[1]-20.
Consuming packet provider[1]-20.
Providing packet provider[1]-21.
Processing packet provider[1]-21.
Forwarding pushed packet provider[1]-21.
Consuming packet provider[1]-21.
Providing packet provider[1]-22.
Processing packet provider[1]-22.
Forwarding pushed packet provider[1]-22.
Consuming packet provider[1]-22.
Providing packet provider[1]-23.
Processing packet provider[1]-23.
Forwarding pushed packet provider[1]-23.
Consuming packet provider[1]-23.
Providing packet provider[1]-24.
Processing packet provider[1]-24.
Forwarding pushed packet provider[1]-24.
Consuming packet provider[1]-24.
Providing packet provider[1]-25.
Processing packet provider[1]-25.
Forwarding pushed packet provider[1]-25.
Consuming packet provider[1]-25.
Providing packet provider[1]-26.
Processing packet provider[1]-26.
Forwarding pushed packet provider[1]-26.
Consuming packet provider[1]-26.
Providing packet provider[1]-27.
Processing packet provider[1]-27.
Forwarding pushed packet provider[1]-27.
Consuming packet provider[1]-27.
Producing packet requestProducer-5.
Pushing packet requestProducer-5 into the queue.
Providing packet provider[1]-28.
Processing packet provider[1]-28.
Forwarding pushed packet provider[1]-28.
Consuming packet provider[1]-28.
Providing packet provider[1]-29.
Processing packet provider[1]-29.
Forwarding pushed packet provider[1]-29.
Consuming packet provider[1]-29.
Popping packet requestProducer-5 from the queue.
Processing packet requestProducer-5 started.
Processing packet requestProducer-5 ended.
Classifying packet requestProducer-5.
Providing packet provider[1]-30.
Processing packet provider[1]-30.
Forwarding pushed packet provider[1]-30.
Consuming packet provider[1]-30.
Providing packet provider[1]-31.
Processing packet provider[1]-31.
Forwarding pushed packet provider[1]-31.
Consuming packet provider[1]-31.
Providing packet provider[1]-32.
Processing packet provider[1]-32.
Forwarding pushed packet provider[1]-32.
Consuming packet provider[1]-32.
Producing packet requestProducer-6.
Pushing packet requestProducer-6 into the queue.
Providing packet provider[1]-33.
Processing packet provider[1]-33.
Forwarding pushed packet provider[1]-33.
Consuming packet provider[1]-33.
Providing packet provider[1]-34.
Processing packet provider[1]-34.
Forwarding pushed packet provider[1]-34.
Consuming packet provider[1]-34.
Providing packet provider[1]-35.
Processing packet provider[1]-35.
Forwarding pushed packet provider[1]-35.
Consuming packet provider[1]-35.
Providing packet provider[1]-36.
Processing packet provider[1]-36.
Forwarding pushed packet provider[1]-36.
Consuming packet provider[1]-36.
Providing packet provider[1]-37.
Processing packet provider[1]-37.
Forwarding pushed packet provider[1]-37.
Consuming packet provider[1]-37.
Providing packet provider[1]-38.
Processing packet provider[1]-38.
Forwarding pushed packet provider[1]-38.
Consuming packet provider[1]-38.
Providing packet provider[1]-39.
Processing packet provider[1]-39.
Forwarding pushed packet provider[1]-39.
Consuming packet provider[1]-39.
Popping packet requestProducer-6 from the queue.
Processing packet requestProducer-6 started.
Processing packet requestProducer-6 ended.
Classifying packet requestProducer-6.
Providing packet provider[1]-40.
Processing packet provider[1]-40.
Forwarding pushed packet provider[1]-40.
Consuming packet provider[1]-40.
Providing packet provider[1]-41.
Processing packet provider[1]-41.
Forwarding pushed packet provider[1]-41.
Consuming packet provider[1]-41.
Providing packet provider[1]-42.
Processing packet provider[1]-42.
Forwarding pushed packet provider[1]-42.
Consuming packet provider[1]-42.
Providing packet provider[1]-43.
Processing packet provider[1]-43.
Forwarding pushed packet provider[1]-43.
Consuming packet provider[1]-43.
Providing packet provider[1]-44.
Processing packet provider[1]-44.
Forwarding pushed packet provider[1]-44.
Consuming packet provider[1]-44.
Providing packet provider[1]-45.
Processing packet provider[1]-45.
Forwarding pushed packet provider[1]-45.
Consuming packet provider[1]-45.
Providing packet provider[1]-46.
Processing packet provider[1]-46.
Forwarding pushed packet provider[1]-46.
Consuming packet provider[1]-46.
Producing packet requestProducer-7.
Pushing packet requestProducer-7 into the queue.
Providing packet provider[1]-47.
Processing packet provider[1]-47.
Forwarding pushed packet provider[1]-47.
Consuming packet provider[1]-47.
Providing packet provider[1]-48.
Processing packet provider[1]-48.
Forwarding pushed packet provider[1]-48.
Consuming packet provider[1]-48.
Providing packet provider[1]-49.
Processing packet provider[1]-49.
Forwarding pushed packet provider[1]-49.
Consuming packet provider[1]-49.
Popping packet requestProducer-7 from the queue.
Processing packet requestProducer-7 started.
Processing packet requestProducer-7 ended.
Classifying packet requestProducer-7.
Providing packet provider[0]-20.
Processing packet provider[0]-20.
Forwarding pushed packet provider[0]-20.
Consuming packet provider[0]-20.
Providing packet provider[0]-21.
Processing packet provider[0]-21.
Forwarding pushed packet provider[0]-21.
Consuming packet provider[0]-21.
Providing packet provider[0]-22.
Processing packet provider[0]-22.
Forwarding pushed packet provider[0]-22.
Consuming packet provider[0]-22.
Providing packet provider[0]-23.
Processing packet provider[0]-23.
Forwarding pushed packet provider[0]-23.
Consuming packet provider[0]-23.
Providing packet provider[0]-24.
Processing packet provider[0]-24.
Forwarding pushed packet provider[0]-24.
Consuming packet provider[0]-24.
Providing packet provider[0]-25.
Processing packet provider[0]-25.
Forwarding pushed packet provider[0]-25.
Consuming packet provider[0]-25.
Providing packet provider[0]-26.
Processing packet provider[0]-26.
Forwarding pushed packet provider[0]-26.
Consuming packet provider[0]-26.
Providing packet provider[0]-27.
Processing packet provider[0]-27.
Forwarding pushed packet provider[0]-27.
Consuming packet provider[0]-27.
Providing packet provider[0]-28.
Processing packet provider[0]-28.
Forwarding pushed packet provider[0]-28.
Consuming packet provider[0]-28.
Providing packet provider[0]-29.
Processing packet provider[0]-29.
Forwarding pushed packet provider[0]-29.
Consuming packet provider[0]-29.
Producing packet requestProducer-8.
Pushing packet requestProducer-8 into the queue.
Popping packet requestProducer-8 from the queue.
Processing packet requestProducer-8 started.
Processing packet requestProducer-8 ended.
Classifying packet requestProducer-8.
Producing packet requestProducer-9.
Pushing packet requestProducer-9 into the queue.
Providing packet provider[0]-30.
Processing packet provider[0]-30.
Forwarding pushed packet provider[0]-30.
Consuming packet provider[0]-30.
Providing packet provider[0]-31.
Processing packet provider[0]-31.
Forwarding pushed packet provider[0]-31.
Consuming packet provider[0]-31.
Providing packet provider[0]-32.
Processing packet provider[0]-32.
Forwarding pushed packet provider[0]-32.
Consuming packet provider[0]-32.
Providing packet provider[0]-33.
Processing packet provider[0]-33.
Forwarding pushed packet provider[0]-33.
Consuming packet provider[0]-33.
Producing packet requestProducer-10.
Pushing packet requestProducer-10 into the queue.
Providing packet provider[0]-34.
Processing packet provider[0]-34.
Forwarding pushed packet provider[0]-34.
Consuming packet provider[0]-34.
Providing packet provider[0]-35.
Processing packet provider[0]-35.
Forwarding pushed packet provider[0]-35.
Consuming packet provider[0]-35.
Providing packet provider[0]-36.
Processing packet provider[0]-36.
Forwarding pushed packet provider[0]-36.
Consuming packet provider[0]-36.
Providing packet provider[0]-37.
Processing packet provider[0]-37.
Forwarding pushed packet provider[0]-37.
Consuming packet provider[0]-37.
Providing packet provider[0]-38.
Processing packet provider[0]-38.
Forwarding pushed packet provider[0]-38.
Consuming packet provider[0]-38.
Producing packet requestProducer-11.
Pushing packet requestProducer-11 into the queue.
Providing packet provider[0]-39.
Processing packet provider[0]-39.
Forwarding pushed packet provider[0]-39.
Consuming packet provider[0]-39.
Popping packet requestProducer-9 from the queue.
Processing packet requestProducer-9 started.
Processing packet requestProducer-9 ended.
Classifying packet requestProducer-9.
Providing packet provider[1]-50.
Processing packet provider[1]-50.
Forwarding pushed packet provider[1]-50.
Consuming packet provider[1]-50.
Producing packet requestProducer-12.
Pushing packet requestProducer-12 into the queue.
Providing packet provider[1]-51.
Processing packet provider[1]-51.
Forwarding pushed packet provider[1]-51.
Consuming packet provider[1]-51.
Providing packet provider[1]-52.
Processing packet provider[1]-52.
Forwarding pushed packet provider[1]-52.
Consuming packet provider[1]-52.
Providing packet provider[1]-53.
Processing packet provider[1]-53.
Forwarding pushed packet provider[1]-53.
Consuming packet provider[1]-53.
Providing packet provider[1]-54.
Processing packet provider[1]-54.
Forwarding pushed packet provider[1]-54.
Consuming packet provider[1]-54.
Providing packet provider[1]-55.
Processing packet provider[1]-55.
Forwarding pushed packet provider[1]-55.
Consuming packet provider[1]-55.
Providing packet provider[1]-56.
Processing packet provider[1]-56.
Forwarding pushed packet provider[1]-56.
Consuming packet provider[1]-56.
Providing packet provider[1]-57.
Processing packet provider[1]-57.
Forwarding pushed packet provider[1]-57.
Consuming packet provider[1]-57.
Providing packet provider[1]-58.
Processing packet provider[1]-58.
Forwarding pushed packet provider[1]-58.
Consuming packet provider[1]-58.
Providing packet provider[1]-59.
Processing packet provider[1]-59.
Forwarding pushed packet provider[1]-59.
Consuming packet provider[1]-59.
Popping packet requestProducer-10 from the queue.
Processing packet requestProducer-10 started.
Processing packet requestProducer-10 ended.
Classifying packet requestProducer-10.
Providing packet provider[0]-40.
Processing packet provider[0]-40.
Forwarding pushed packet provider[0]-40.
Consuming packet provider[0]-40.
Providing packet provider[0]-41.
Processing packet provider[0]-41.
Forwarding pushed packet provider[0]-41.
Consuming packet provider[0]-41.
Providing packet provider[0]-42.
Processing packet provider[0]-42.
Forwarding pushed packet provider[0]-42.
Consuming packet provider[0]-42.
Providing packet provider[0]-43.
Processing packet provider[0]-43.
Forwarding pushed packet provider[0]-43.
Consuming packet provider[0]-43.
Providing packet provider[0]-44.
Processing packet provider[0]-44.
Forwarding pushed packet provider[0]-44.
Consuming packet provider[0]-44.
Providing packet provider[0]-45.
Processing packet provider[0]-45.
Forwarding pushed packet provider[0]-45.
Consuming packet provider[0]-45.
Producing packet requestProducer-13.
Pushing packet requestProducer-13 into the queue.
Providing packet provider[0]-46.
Processing packet provider[0]-46.
Forwarding pushed packet provider[0]-46.
Consuming packet provider[0]-46.
Providing packet provider[0]-47.
Processing packet provider[0]-47.
Forwarding pushed packet provider[0]-47.
Consuming packet provider[0]-47.
Providing packet provider[0]-48.
Processing packet provider[0]-48.
Forwarding pushed packet provider[0]-48.
Consuming packet provider[0]-48.
Providing packet provider[0]-49.
Processing packet provider[0]-49.
Forwarding pushed packet provider[0]-49.
Consuming packet provider[0]-49.
Popping packet requestProducer-11 from the queue.
Processing packet requestProducer-11 started.
Processing packet requestProducer-11 ended.
Classifying packet requestProducer-11.
Providing packet provider[0]-50.
Processing packet provider[0]-50.
Forwarding pushed packet provider[0]-50.
Consuming packet provider[0]-50.
Producing packet requestProducer-14.
Pushing packet requestProducer-14 into the queue.
Providing packet provider[0]-51.
Processing packet provider[0]-51.
Forwarding pushed packet provider[0]-51.
Consuming packet provider[0]-51.
Providing packet provider[0]-52.
Processing packet provider[0]-52.
Forwarding pushed packet provider[0]-52.
Consuming packet provider[0]-52.
Producing packet requestProducer-15.
Pushing packet requestProducer-15 into the queue.
Providing packet provider[0]-53.
Processing packet provider[0]-53.
Forwarding pushed packet provider[0]-53.
Consuming packet provider[0]-53.
Providing packet provider[0]-54.
Processing packet provider[0]-54.
Forwarding pushed packet provider[0]-54.
Consuming packet provider[0]-54.
Providing packet provider[0]-55.
Processing packet provider[0]-55.
Forwarding pushed packet provider[0]-55.
Consuming packet provider[0]-55.
Providing packet provider[0]-56.
Processing packet provider[0]-56.
Forwarding pushed packet provider[0]-56.
Consuming packet provider[0]-56.
Providing packet provider[0]-57.
Processing packet provider[0]-57.
Forwarding pushed packet provider[0]-57.
Consuming packet provider[0]-57.
Providing packet provider[0]-58.
Processing packet provider[0]-58.
Forwarding pushed packet provider[0]-58.
Consuming packet provider[0]-58.
Providing packet provider[0]-59.
Processing packet provider[0]-59.
Forwarding pushed packet provider[0]-59.
Consuming packet provider[0]-59.
Popping packet requestProducer-12 from the queue.
Processing packet requestProducer-12 started.
Processing packet requestProducer-12 ended.
Classifying packet requestProducer-12.
Providing packet provider[1]-60.
Processing packet provider[1]-60.
Forwarding pushed packet provider[1]-60.
Consuming packet provider[1]-60.
Providing packet provider[1]-61.
Processing packet provider[1]-61.
Forwarding pushed packet provider[1]-61.
Consuming packet provider[1]-61.
Providing packet provider[1]-62.
Processing packet provider[1]-62.
Forwarding pushed packet provider[1]-62.
Consuming packet provider[1]-62.
Providing packet provider[1]-63.
Processing packet provider[1]-63.
Forwarding pushed packet provider[1]-63.
Consuming packet provider[1]-63.
Providing packet provider[1]-64.
Processing packet provider[1]-64.
Forwarding pushed packet provider[1]-64.
Consuming packet provider[1]-64.
Providing packet provider[1]-65.
Processing packet provider[1]-65.
Forwarding pushed packet provider[1]-65.
Consuming packet provider[1]-65.
Providing packet provider[1]-66.
Processing packet provider[1]-66.
Forwarding pushed packet provider[1]-66.
Consuming packet provider[1]-66.
Providing packet provider[1]-67.
Processing packet provider[1]-67.
Forwarding pushed packet provider[1]-67.
Consuming packet provider[1]-67.
Providing packet provider[1]-68.
Processing packet provider[1]-68.
Forwarding pushed packet provider[1]-68.
Consuming packet provider[1]-68.
Providing packet provider[1]-69.
Processing packet provider[1]-69.
Forwarding pushed packet provider[1]-69.
Consuming packet provider[1]-69.
Popping packet requestProducer-13 from the queue.
Processing packet requestProducer-13 started.
Processing packet requestProducer-13 ended.
Classifying packet requestProducer-13.
Providing packet provider[1]-70.
Processing packet provider[1]-70.
Forwarding pushed packet provider[1]-70.
Consuming packet provider[1]-70.
Producing packet requestProducer-16.
Pushing packet requestProducer-16 into the queue.
Providing packet provider[1]-71.
Processing packet provider[1]-71.
Forwarding pushed packet provider[1]-71.
Consuming packet provider[1]-71.
Providing packet provider[1]-72.
Processing packet provider[1]-72.
Forwarding pushed packet provider[1]-72.
Consuming packet provider[1]-72.
Providing packet provider[1]-73.
Processing packet provider[1]-73.
Forwarding pushed packet provider[1]-73.
Consuming packet provider[1]-73.
Producing packet requestProducer-17.
Pushing packet requestProducer-17 into the queue.
Providing packet provider[1]-74.
Processing packet provider[1]-74.
Forwarding pushed packet provider[1]-74.
Consuming packet provider[1]-74.
Providing packet provider[1]-75.
Processing packet provider[1]-75.
Forwarding pushed packet provider[1]-75.
Consuming packet provider[1]-75.
Providing packet provider[1]-76.
Processing packet provider[1]-76.
Forwarding pushed packet provider[1]-76.
Consuming packet provider[1]-76.
Providing packet provider[1]-77.
Processing packet provider[1]-77.
Forwarding pushed packet provider[1]-77.
Consuming packet provider[1]-77.
Providing packet provider[1]-78.
Processing packet provider[1]-78.
Forwarding pushed packet provider[1]-78.
Consuming packet provider[1]-78.
Producing packet requestProducer-18.
Pushing packet requestProducer-18 into the queue.
Providing packet provider[1]-79.
Processing packet provider[1]-79.
Forwarding pushed packet provider[1]-79.
Consuming packet provider[1]-79.
Popping packet requestProducer-14 from the queue.
Processing packet requestProducer-14 started.
Processing packet requestProducer-14 ended.
Classifying packet requestProducer-14.
Providing packet provider[1]-80.
Processing packet provider[1]-80.
Forwarding pushed packet provider[1]-80.
Consuming packet provider[1]-80.
Providing packet provider[1]-81.
Processing packet provider[1]-81.
Forwarding pushed packet provider[1]-81.
Consuming packet provider[1]-81.
Producing packet requestProducer-19.
Pushing packet requestProducer-19 into the queue.
Providing packet provider[1]-82.
Processing packet provider[1]-82.
Forwarding pushed packet provider[1]-82.
Consuming packet provider[1]-82.
Producing packet requestProducer-20.
Pushing packet requestProducer-20 into the queue.
Providing packet provider[1]-83.
Processing packet provider[1]-83.
Forwarding pushed packet provider[1]-83.
Consuming packet provider[1]-83.
Providing packet provider[1]-84.
Processing packet provider[1]-84.
Forwarding pushed packet provider[1]-84.
Consuming packet provider[1]-84.
Providing packet provider[1]-85.
Processing packet provider[1]-85.
Forwarding pushed packet provider[1]-85.
Consuming packet provider[1]-85.
Providing packet provider[1]-86.
Processing packet provider[1]-86.
Forwarding pushed packet provider[1]-86.
Consuming packet provider[1]-86.
Providing packet provider[1]-87.
Processing packet provider[1]-87.
Forwarding pushed packet provider[1]-87.
Consuming packet provider[1]-87.
Providing packet provider[1]-88.
Processing packet provider[1]-88.
Forwarding pushed packet provider[1]-88.
Consuming packet provider[1]-88.
Providing packet provider[1]-89.
Processing packet provider[1]-89.
Forwarding pushed packet provider[1]-89.
Consuming packet provider[1]-89.
Popping packet requestProducer-15 from the queue.
Processing packet requestProducer-15 started.
Processing packet requestProducer-15 ended.
Classifying packet requestProducer-15.
Providing packet provider[0]-60.
Processing packet provider[0]-60.
Forwarding pushed packet provider[0]-60.
Consuming packet provider[0]-60.
Providing packet provider[0]-61.
Processing packet provider[0]-61.
Forwarding pushed packet provider[0]-61.
Consuming packet provider[0]-61.
Providing packet provider[0]-62.
Processing packet provider[0]-62.
Forwarding pushed packet provider[0]-62.
Consuming packet provider[0]-62.
Producing packet requestProducer-21.
Pushing packet requestProducer-21 into the queue.
Providing packet provider[0]-63.
Processing packet provider[0]-63.
Forwarding pushed packet provider[0]-63.
Consuming packet provider[0]-63.
Providing packet provider[0]-64.
Processing packet provider[0]-64.
Forwarding pushed packet provider[0]-64.
Consuming packet provider[0]-64.
Providing packet provider[0]-65.
Processing packet provider[0]-65.
Forwarding pushed packet provider[0]-65.
Consuming packet provider[0]-65.
Providing packet provider[0]-66.
Processing packet provider[0]-66.
Forwarding pushed packet provider[0]-66.
Consuming packet provider[0]-66.
Providing packet provider[0]-67.
Processing packet provider[0]-67.
Forwarding pushed packet provider[0]-67.
Consuming packet provider[0]-67.
Providing packet provider[0]-68.
Processing packet provider[0]-68.
Forwarding pushed packet provider[0]-68.
Consuming packet provider[0]-68.
Providing packet provider[0]-69.
Processing packet provider[0]-69.
Forwarding pushed packet provider[0]-69.
Consuming packet provider[0]-69.
Popping packet requestProducer-16 from the queue.