%description:

This test contains a simplified version of a client/server and a request/response
based communication.*?

Request packets are produced periodically and randomly by an active packet
source (ActivePacketSource) in the client. The generated requests fall into one of
two categories based on the data they contain.*?

The server processes requests in order, one by one, using a compound consumer
(RequestConsumer). Each request is first classified based on the data it contains,
and then a certain number of tokens are generated as the request is consumed.*?

The tokens are added to a response server in a compound producer (ResponseProducer).*?
The response producer generates different traffic randomly over a period of time
for each kind of request.*?

The client consumes the response packets by a passive packet sink (PassivePacketSink).*?

%file: test.ned

import inet.queueing.sink.RequestConsumer;
import inet.queueing.sink.PassivePacketSink;
import inet.queueing.source.ActivePacketSource;
import inet.queueing.source.ResponseProducer;

network TestRequestResponse
{
    submodules:
        requestProducer: ActivePacketSource {
            @display("p=200,100");
        }
        responseConsumer: PassivePacketSink {
            @display("p=400,100");
        }
        requestConsumer: RequestConsumer {
            @display("p=200,200");
        }
        responseProducer: ResponseProducer {
            @display("p=400,200");
        }
    connections allowunconnected:
    	requestProducer.out --> requestConsumer.in;
        responseProducer.out --> responseConsumer.in;
}

%file: Test.cc
#include "inet/queueing/function/PacketClassifierFunction.h"
#include "inet/common/packet/Packet.h"

using namespace inet; 

static int testClassify(Packet *packet)
{
    return packet->getId() % 2;
}

Register_Packet_Classifier_Function(TestClassifier, testClassify);

%inifile: omnetpp.ini

[General]
network = TestRequestResponse
sim-time-limit = 100s
cmdenv-event-banners = false
*.requestProducer.packetLength = 1B
*.requestProducer.productionInterval = uniform(0s, 4s)
*.requestConsumer.numKind = 2
*.requestConsumer.classifier.classifierClass = "TestClassifier"
*.requestConsumer.responseProducerModule = "^.responseProducer"
*.requestConsumer.tokenGenerator[0].numTokensPerPacket = intuniform(1, 10)
*.requestConsumer.tokenGenerator[1].numTokensPerPacket = intuniform(1, 5)
*.responseProducer.numKind = 2
*.responseProducer.requestConsumerModule = "^.requestConsumer"
*.responseProducer.provider[0].packetLength = intuniform(1B, 10B)
*.responseProducer.provider[0].providingInterval = uniform(0s, 0.2s)
*.responseProducer.provider[1].packetLength = intuniform(1B, 100B)
*.responseProducer.provider[1].providingInterval = uniform(0s, 2s)

%# remove formatting
%subst: /\x1B\[[0-9;]*m//

%subst: /\nRunning simulation\.\.\.\n//

%contains-regex: stdout
Producing packet, packet = \(Packet\)requestProducer-0[^\n]*?
Pushing packet, packet = \(Packet\)requestProducer-0[^\n]*?
Pulling packet, packet = \(Packet\)requestProducer-0[^\n]*?
Processing packet, packet = \(Packet\)requestProducer-0[^\n]*?
Classifying packet, packet = \(Packet\)requestProducer-0[^\n]*?
Providing packet, packet = \(Packet\)provider\[0\]-0[^\n]*?
Processing packet, packet = \(Packet\)provider\[0\]-0[^\n]*?
Forwarding packet, packet = \(Packet\)provider\[0\]-0[^\n]*?
Consuming packet, packet = \(Packet\)provider\[0\]-0[^\n]*?
Providing packet, packet = \(Packet\)provider\[0\]-1[^\n]*?
Processing packet, packet = \(Packet\)provider\[0\]-1[^\n]*?
Forwarding packet, packet = \(Packet\)provider\[0\]-1[^\n]*?
Consuming packet, packet = \(Packet\)provider\[0\]-1[^\n]*?
Providing packet, packet = \(Packet\)provider\[0\]-2[^\n]*?
Processing packet, packet = \(Packet\)provider\[0\]-2[^\n]*?
Forwarding packet, packet = \(Packet\)provider\[0\]-2[^\n]*?
Consuming packet, packet = \(Packet\)provider\[0\]-2[^\n]*?
Providing packet, packet = \(Packet\)provider\[0\]-3[^\n]*?
Processing packet, packet = \(Packet\)provider\[0\]-3[^\n]*?
Forwarding packet, packet = \(Packet\)provider\[0\]-3[^\n]*?
Consuming packet, packet = \(Packet\)provider\[0\]-3[^\n]*?
Providing packet, packet = \(Packet\)provider\[0\]-4[^\n]*?
Processing packet, packet = \(Packet\)provider\[0\]-4[^\n]*?
Forwarding packet, packet = \(Packet\)provider\[0\]-4[^\n]*?
Consuming packet, packet = \(Packet\)provider\[0\]-4[^\n]*?
Providing packet, packet = \(Packet\)provider\[0\]-5[^\n]*?
Processing packet, packet = \(Packet\)provider\[0\]-5[^\n]*?
Forwarding packet, packet = \(Packet\)provider\[0\]-5[^\n]*?
Consuming packet, packet = \(Packet\)provider\[0\]-5[^\n]*?
Producing packet, packet = \(Packet\)requestProducer-1[^\n]*?
Pushing packet, packet = \(Packet\)requestProducer-1[^\n]*?
Pulling packet, packet = \(Packet\)requestProducer-1[^\n]*?
Processing packet, packet = \(Packet\)requestProducer-1[^\n]*?
Classifying packet, packet = \(Packet\)requestProducer-1[^\n]*?
Providing packet, packet = \(Packet\)provider\[1\]-0[^\n]*?
Processing packet, packet = \(Packet\)provider\[1\]-0[^\n]*?
Forwarding packet, packet = \(Packet\)provider\[1\]-0[^\n]*?
Consuming packet, packet = \(Packet\)provider\[1\]-0[^\n]*?
Producing packet, packet = \(Packet\)requestProducer-2[^\n]*?
Pushing packet, packet = \(Packet\)requestProducer-2[^\n]*?
Pulling packet, packet = \(Packet\)requestProducer-2[^\n]*?
Processing packet, packet = \(Packet\)requestProducer-2[^\n]*?
Classifying packet, packet = \(Packet\)requestProducer-2[^\n]*?
Providing packet, packet = \(Packet\)provider\[1\]-1[^\n]*?
Processing packet, packet = \(Packet\)provider\[1\]-1[^\n]*?
Forwarding packet, packet = \(Packet\)provider\[1\]-1[^\n]*?
Consuming packet, packet = \(Packet\)provider\[1\]-1[^\n]*?
Producing packet, packet = \(Packet\)requestProducer-3[^\n]*?
Pushing packet, packet = \(Packet\)requestProducer-3[^\n]*?
Pulling packet, packet = \(Packet\)requestProducer-3[^\n]*?
Processing packet, packet = \(Packet\)requestProducer-3[^\n]*?
Classifying packet, packet = \(Packet\)requestProducer-3[^\n]*?
Providing packet, packet = \(Packet\)provider\[1\]-2[^\n]*?
Processing packet, packet = \(Packet\)provider\[1\]-2[^\n]*?
Forwarding packet, packet = \(Packet\)provider\[1\]-2[^\n]*?
Consuming packet, packet = \(Packet\)provider\[1\]-2[^\n]*?
Producing packet, packet = \(Packet\)requestProducer-4[^\n]*?
Pushing packet, packet = \(Packet\)requestProducer-4[^\n]*?
Pulling packet, packet = \(Packet\)requestProducer-4[^\n]*?
Processing packet, packet = \(Packet\)requestProducer-4[^\n]*?
Classifying packet, packet = \(Packet\)requestProducer-4[^\n]*?
Providing packet, packet = \(Packet\)provider\[0\]-6[^\n]*?
Processing packet, packet = \(Packet\)provider\[0\]-6[^\n]*?
Forwarding packet, packet = \(Packet\)provider\[0\]-6[^\n]*?
Consuming packet, packet = \(Packet\)provider\[0\]-6[^\n]*?
Producing packet, packet = \(Packet\)requestProducer-5[^\n]*?
Pushing packet, packet = \(Packet\)requestProducer-5[^\n]*?
Pulling packet, packet = \(Packet\)requestProducer-5[^\n]*?
Processing packet, packet = \(Packet\)requestProducer-5[^\n]*?
Classifying packet, packet = \(Packet\)requestProducer-5[^\n]*?
Providing packet, packet = \(Packet\)provider\[1\]-3[^\n]*?
Processing packet, packet = \(Packet\)provider\[1\]-3[^\n]*?
Forwarding packet, packet = \(Packet\)provider\[1\]-3[^\n]*?
Consuming packet, packet = \(Packet\)provider\[1\]-3[^\n]*?
Providing packet, packet = \(Packet\)provider\[1\]-4[^\n]*?
Processing packet, packet = \(Packet\)provider\[1\]-4[^\n]*?
Forwarding packet, packet = \(Packet\)provider\[1\]-4[^\n]*?
Consuming packet, packet = \(Packet\)provider\[1\]-4[^\n]*?
Producing packet, packet = \(Packet\)requestProducer-6[^\n]*?
Pushing packet, packet = \(Packet\)requestProducer-6[^\n]*?
Pulling packet, packet = \(Packet\)requestProducer-6[^\n]*?
Processing packet, packet = \(Packet\)requestProducer-6[^\n]*?
Classifying packet, packet = \(Packet\)requestProducer-6[^\n]*?
Providing packet, packet = \(Packet\)provider\[0\]-7[^\n]*?
Processing packet, packet = \(Packet\)provider\[0\]-7[^\n]*?
Forwarding packet, packet = \(Packet\)provider\[0\]-7[^\n]*?
Consuming packet, packet = \(Packet\)provider\[0\]-7[^\n]*?
Providing packet, packet = \(Packet\)provider\[0\]-8[^\n]*?
Processing packet, packet = \(Packet\)provider\[0\]-8[^\n]*?
Forwarding packet, packet = \(Packet\)provider\[0\]-8[^\n]*?
Consuming packet, packet = \(Packet\)provider\[0\]-8[^\n]*?
Providing packet, packet = \(Packet\)provider\[0\]-9[^\n]*?
Processing packet, packet = \(Packet\)provider\[0\]-9[^\n]*?
Forwarding packet, packet = \(Packet\)provider\[0\]-9[^\n]*?
Consuming packet, packet = \(Packet\)provider\[0\]-9[^\n]*?
Providing packet, packet = \(Packet\)provider\[0\]-10[^\n]*?
Processing packet, packet = \(Packet\)provider\[0\]-10[^\n]*?
Forwarding packet, packet = \(Packet\)provider\[0\]-10[^\n]*?
Consuming packet, packet = \(Packet\)provider\[0\]-10[^\n]*?
Providing packet, packet = \(Packet\)provider\[0\]-11[^\n]*?
Processing packet, packet = \(Packet\)provider\[0\]-11[^\n]*?
Forwarding packet, packet = \(Packet\)provider\[0\]-11[^\n]*?
Consuming packet, packet = \(Packet\)provider\[0\]-11[^\n]*?
Producing packet, packet = \(Packet\)requestProducer-7[^\n]*?
Pushing packet, packet = \(Packet\)requestProducer-7[^\n]*?
Providing packet, packet = \(Packet\)provider\[0\]-12[^\n]*?
Processing packet, packet = \(Packet\)provider\[0\]-12[^\n]*?
Forwarding packet, packet = \(Packet\)provider\[0\]-12[^\n]*?
Consuming packet, packet = \(Packet\)provider\[0\]-12[^\n]*?
Providing packet, packet = \(Packet\)provider\[0\]-13[^\n]*?
Processing packet, packet = \(Packet\)provider\[0\]-13[^\n]*?
Forwarding packet, packet = \(Packet\)provider\[0\]-13[^\n]*?
Consuming packet, packet = \(Packet\)provider\[0\]-13[^\n]*?
Providing packet, packet = \(Packet\)provider\[0\]-14[^\n]*?
Processing packet, packet = \(Packet\)provider\[0\]-14[^\n]*?
Forwarding packet, packet = \(Packet\)provider\[0\]-14[^\n]*?
Consuming packet, packet = \(Packet\)provider\[0\]-14[^\n]*?
Pulling packet, packet = \(Packet\)requestProducer-7[^\n]*?
Processing packet, packet = \(Packet\)requestProducer-7[^\n]*?
Classifying packet, packet = \(Packet\)requestProducer-7[^\n]*?
Providing packet, packet = \(Packet\)provider\[1\]-5[^\n]*?
Processing packet, packet = \(Packet\)provider\[1\]-5[^\n]*?
Forwarding packet, packet = \(Packet\)provider\[1\]-5[^\n]*?
Consuming packet, packet = \(Packet\)provider\[1\]-5[^\n]*?
Producing packet, packet = \(Packet\)requestProducer-8[^\n]*?
Pushing packet, packet = \(Packet\)requestProducer-8[^\n]*?
Pulling packet, packet = \(Packet\)requestProducer-8[^\n]*?
Processing packet, packet = \(Packet\)requestProducer-8[^\n]*?
Classifying packet, packet = \(Packet\)requestProducer-8[^\n]*?
Providing packet, packet = \(Packet\)provider\[0\]-15[^\n]*?
Processing packet, packet = \(Packet\)provider\[0\]-15[^\n]*?
Forwarding packet, packet = \(Packet\)provider\[0\]-15[^\n]*?
Consuming packet, packet = \(Packet\)provider\[0\]-15[^\n]*?
Providing packet, packet = \(Packet\)provider\[0\]-16[^\n]*?
Processing packet, packet = \(Packet\)provider\[0\]-16[^\n]*?
Forwarding packet, packet = \(Packet\)provider\[0\]-16[^\n]*?
Consuming packet, packet = \(Packet\)provider\[0\]-16[^\n]*?
Providing packet, packet = \(Packet\)provider\[0\]-17[^\n]*?
Processing packet, packet = \(Packet\)provider\[0\]-17[^\n]*?
Forwarding packet, packet = \(Packet\)provider\[0\]-17[^\n]*?
Consuming packet, packet = \(Packet\)provider\[0\]-17[^\n]*?
Providing packet, packet = \(Packet\)provider\[0\]-18[^\n]*?
Processing packet, packet = \(Packet\)provider\[0\]-18[^\n]*?
Forwarding packet, packet = \(Packet\)provider\[0\]-18[^\n]*?
Consuming packet, packet = \(Packet\)provider\[0\]-18[^\n]*?
Providing packet, packet = \(Packet\)provider\[0\]-19[^\n]*?
Processing packet, packet = \(Packet\)provider\[0\]-19[^\n]*?
Forwarding packet, packet = \(Packet\)provider\[0\]-19[^\n]*?
Consuming packet, packet = \(Packet\)provider\[0\]-19[^\n]*?
Producing packet, packet = \(Packet\)requestProducer-9[^\n]*?
Pushing packet, packet = \(Packet\)requestProducer-9[^\n]*?
Pulling packet, packet = \(Packet\)requestProducer-9[^\n]*?
Processing packet, packet = \(Packet\)requestProducer-9[^\n]*?
Classifying packet, packet = \(Packet\)requestProducer-9[^\n]*?
Providing packet, packet = \(Packet\)provider\[1\]-6[^\n]*?
Processing packet, packet = \(Packet\)provider\[1\]-6[^\n]*?
Forwarding packet, packet = \(Packet\)provider\[1\]-6[^\n]*?
Consuming packet, packet = \(Packet\)provider\[1\]-6[^\n]*?
Providing packet, packet = \(Packet\)provider\[1\]-7[^\n]*?
Processing packet, packet = \(Packet\)provider\[1\]-7[^\n]*?
Forwarding packet, packet = \(Packet\)provider\[1\]-7[^\n]*?
Consuming packet, packet = \(Packet\)provider\[1\]-7[^\n]*?
Producing packet, packet = \(Packet\)requestProducer-10[^\n]*?
Pushing packet, packet = \(Packet\)requestProducer-10[^\n]*?
Providing packet, packet = \(Packet\)provider\[1\]-8[^\n]*?
Processing packet, packet = \(Packet\)provider\[1\]-8[^\n]*?
Forwarding packet, packet = \(Packet\)provider\[1\]-8[^\n]*?
Consuming packet, packet = \(Packet\)provider\[1\]-8[^\n]*?
Pulling packet, packet = \(Packet\)requestProducer-10[^\n]*?
Processing packet, packet = \(Packet\)requestProducer-10[^\n]*?
Classifying packet, packet = \(Packet\)requestProducer-10[^\n]*?
Providing packet, packet = \(Packet\)provider\[1\]-9[^\n]*?
Processing packet, packet = \(Packet\)provider\[1\]-9[^\n]*?
Forwarding packet, packet = \(Packet\)provider\[1\]-9[^\n]*?
Consuming packet, packet = \(Packet\)provider\[1\]-9[^\n]*?
Providing packet, packet = \(Packet\)provider\[1\]-10[^\n]*?
Processing packet, packet = \(Packet\)provider\[1\]-10[^\n]*?
Forwarding packet, packet = \(Packet\)provider\[1\]-10[^\n]*?
Consuming packet, packet = \(Packet\)provider\[1\]-10[^\n]*?
Producing packet, packet = \(Packet\)requestProducer-11[^\n]*?
Pushing packet, packet = \(Packet\)requestProducer-11[^\n]*?
Producing packet, packet = \(Packet\)requestProducer-12[^\n]*?
Pushing packet, packet = \(Packet\)requestProducer-12[^\n]*?
Providing packet, packet = \(Packet\)provider\[1\]-11[^\n]*?
Processing packet, packet = \(Packet\)provider\[1\]-11[^\n]*?
Forwarding packet, packet = \(Packet\)provider\[1\]-11[^\n]*?
Consuming packet, packet = \(Packet\)provider\[1\]-11[^\n]*?
Producing packet, packet = \(Packet\)requestProducer-13[^\n]*?
Pushing packet, packet = \(Packet\)requestProducer-13[^\n]*?
Providing packet, packet = \(Packet\)provider\[1\]-12[^\n]*?
Processing packet, packet = \(Packet\)provider\[1\]-12[^\n]*?
Forwarding packet, packet = \(Packet\)provider\[1\]-12[^\n]*?
Consuming packet, packet = \(Packet\)provider\[1\]-12[^\n]*?
Providing packet, packet = \(Packet\)provider\[1\]-13[^\n]*?
Processing packet, packet = \(Packet\)provider\[1\]-13[^\n]*?
Forwarding packet, packet = \(Packet\)provider\[1\]-13[^\n]*?
Consuming packet, packet = \(Packet\)provider\[1\]-13[^\n]*?
Pulling packet, packet = \(Packet\)requestProducer-11[^\n]*?
Processing packet, packet = \(Packet\)requestProducer-11[^\n]*?
Classifying packet, packet = \(Packet\)requestProducer-11[^\n]*?
Providing packet, packet = \(Packet\)provider\[1\]-14[^\n]*?
Processing packet, packet = \(Packet\)provider\[1\]-14[^\n]*?
Forwarding packet, packet = \(Packet\)provider\[1\]-14[^\n]*?
Consuming packet, packet = \(Packet\)provider\[1\]-14[^\n]*?
Producing packet, packet = \(Packet\)requestProducer-14[^\n]*?
Pushing packet, packet = \(Packet\)requestProducer-14[^\n]*?
Producing packet, packet = \(Packet\)requestProducer-15[^\n]*?
Pushing packet, packet = \(Packet\)requestProducer-15[^\n]*?
Providing packet, packet = \(Packet\)provider\[1\]-15[^\n]*?
Processing packet, packet = \(Packet\)provider\[1\]-15[^\n]*?
Forwarding packet, packet = \(Packet\)provider\[1\]-15[^\n]*?
Consuming packet, packet = \(Packet\)provider\[1\]-15[^\n]*?
Producing packet, packet = \(Packet\)requestProducer-16[^\n]*?
Pushing packet, packet = \(Packet\)requestProducer-16[^\n]*?
Providing packet, packet = \(Packet\)provider\[1\]-16[^\n]*?
Processing packet, packet = \(Packet\)provider\[1\]-16[^\n]*?
Forwarding packet, packet = \(Packet\)provider\[1\]-16[^\n]*?
Consuming packet, packet = \(Packet\)provider\[1\]-16[^\n]*?
Providing packet, packet = \(Packet\)provider\[1\]-17[^\n]*?
Processing packet, packet = \(Packet\)provider\[1\]-17[^\n]*?
Forwarding packet, packet = \(Packet\)provider\[1\]-17[^\n]*?
Consuming packet, packet = \(Packet\)provider\[1\]-17[^\n]*?
Pulling packet, packet = \(Packet\)requestProducer-12[^\n]*?
Processing packet, packet = \(Packet\)requestProducer-12[^\n]*?
Classifying packet, packet = \(Packet\)requestProducer-12[^\n]*?
Providing packet, packet = \(Packet\)provider\[0\]-20[^\n]*?
Processing packet, packet = \(Packet\)provider\[0\]-20[^\n]*?
Forwarding packet, packet = \(Packet\)provider\[0\]-20[^\n]*?
Consuming packet, packet = \(Packet\)provider\[0\]-20[^\n]*?
Pulling packet, packet = \(Packet\)requestProducer-13[^\n]*?
Processing packet, packet = \(Packet\)requestProducer-13[^\n]*?
Classifying packet, packet = \(Packet\)requestProducer-13[^\n]*?
Providing packet, packet = \(Packet\)provider\[0\]-21[^\n]*?
Processing packet, packet = \(Packet\)provider\[0\]-21[^\n]*?
Forwarding packet, packet = \(Packet\)provider\[0\]-21[^\n]*?
Consuming packet, packet = \(Packet\)provider\[0\]-21[^\n]*?
Pulling packet, packet = \(Packet\)requestProducer-14[^\n]*?
Processing packet, packet = \(Packet\)requestProducer-14[^\n]*?
Classifying packet, packet = \(Packet\)requestProducer-14[^\n]*?
Providing packet, packet = \(Packet\)provider\[0\]-22[^\n]*?
Processing packet, packet = \(Packet\)provider\[0\]-22[^\n]*?
Forwarding packet, packet = \(Packet\)provider\[0\]-22[^\n]*?
Consuming packet, packet = \(Packet\)provider\[0\]-22[^\n]*?
Providing packet, packet = \(Packet\)provider\[0\]-23[^\n]*?
Processing packet, packet = \(Packet\)provider\[0\]-23[^\n]*?
Forwarding packet, packet = \(Packet\)provider\[0\]-23[^\n]*?
Consuming packet, packet = \(Packet\)provider\[0\]-23[^\n]*?
Providing packet, packet = \(Packet\)provider\[0\]-24[^\n]*?
Processing packet, packet = \(Packet\)provider\[0\]-24[^\n]*?
Forwarding packet, packet = \(Packet\)provider\[0\]-24[^\n]*?
Consuming packet, packet = \(Packet\)provider\[0\]-24[^\n]*?
Providing packet, packet = \(Packet\)provider\[0\]-25[^\n]*?
Processing packet, packet = \(Packet\)provider\[0\]-25[^\n]*?
Forwarding packet, packet = \(Packet\)provider\[0\]-25[^\n]*?
Consuming packet, packet = \(Packet\)provider\[0\]-25[^\n]*?
Providing packet, packet = \(Packet\)provider\[0\]-26[^\n]*?
Processing packet, packet = \(Packet\)provider\[0\]-26[^\n]*?
Forwarding packet, packet = \(Packet\)provider\[0\]-26[^\n]*?
Consuming packet, packet = \(Packet\)provider\[0\]-26[^\n]*?
Pulling packet, packet = \(Packet\)requestProducer-15[^\n]*?
Processing packet, packet = \(Packet\)requestProducer-15[^\n]*?
Classifying packet, packet = \(Packet\)requestProducer-15[^\n]*?
Providing packet, packet = \(Packet\)provider\[1\]-18[^\n]*?
Processing packet, packet = \(Packet\)provider\[1\]-18[^\n]*?
Forwarding packet, packet = \(Packet\)provider\[1\]-18[^\n]*?
Consuming packet, packet = \(Packet\)provider\[1\]-18[^\n]*?
Providing packet, packet = \(Packet\)provider\[1\]-19[^\n]*?
Processing packet, packet = \(Packet\)provider\[1\]-19[^\n]*?
Forwarding packet, packet = \(Packet\)provider\[1\]-19[^\n]*?
Consuming packet, packet = \(Packet\)provider\[1\]-19[^\n]*?
Providing packet, packet = \(Packet\)provider\[1\]-20[^\n]*?
Processing packet, packet = \(Packet\)provider\[1\]-20[^\n]*?
Forwarding packet, packet = \(Packet\)provider\[1\]-20[^\n]*?
Consuming packet, packet = \(Packet\)provider\[1\]-20[^\n]*?
Producing packet, packet = \(Packet\)requestProducer-17[^\n]*?
Pushing packet, packet = \(Packet\)requestProducer-17[^\n]*?
Producing packet, packet = \(Packet\)requestProducer-18[^\n]*?
Pushing packet, packet = \(Packet\)requestProducer-18[^\n]*?
Pulling packet, packet = \(Packet\)requestProducer-16[^\n]*?
Processing packet, packet = \(Packet\)requestProducer-16[^\n]*?
Classifying packet, packet = \(Packet\)requestProducer-16[^\n]*?
Providing packet, packet = \(Packet\)provider\[1\]-21[^\n]*?
Processing packet, packet = \(Packet\)provider\[1\]-21[^\n]*?
Forwarding packet, packet = \(Packet\)provider\[1\]-21[^\n]*?
Consuming packet, packet = \(Packet\)provider\[1\]-21[^\n]*?
Providing packet, packet = \(Packet\)provider\[1\]-22[^\n]*?
Processing packet, packet = \(Packet\)provider\[1\]-22[^\n]*?
Forwarding packet, packet = \(Packet\)provider\[1\]-22[^\n]*?
Consuming packet, packet = \(Packet\)provider\[1\]-22[^\n]*?
Producing packet, packet = \(Packet\)requestProducer-19[^\n]*?
Pushing packet, packet = \(Packet\)requestProducer-19[^\n]*?
Providing packet, packet = \(Packet\)provider\[1\]-23[^\n]*?
Processing packet, packet = \(Packet\)provider\[1\]-23[^\n]*?
Forwarding packet, packet = \(Packet\)provider\[1\]-23[^\n]*?
Consuming packet, packet = \(Packet\)provider\[1\]-23[^\n]*?
Producing packet, packet = \(Packet\)requestProducer-20[^\n]*?
Pushing packet, packet = \(Packet\)requestProducer-20[^\n]*?
Providing packet, packet = \(Packet\)provider\[1\]-24[^\n]*?
Processing packet, packet = \(Packet\)provider\[1\]-24[^\n]*?
Forwarding packet, packet = \(Packet\)provider\[1\]-24[^\n]*?
Consuming packet, packet = \(Packet\)provider\[1\]-24[^\n]*?
Producing packet, packet = \(Packet\)requestProducer-21[^\n]*?
Pushing packet, packet = \(Packet\)requestProducer-21[^\n]*?
Pulling packet, packet = \(Packet\)requestProducer-17[^\n]*?
Processing packet, packet = \(Packet\)requestProducer-17[^\n]*?
Classifying packet, packet = \(Packet\)requestProducer-17[^\n]*?
Providing packet, packet = \(Packet\)provider\[0\]-27[^\n]*?
Processing packet, packet = \(Packet\)provider\[0\]-27[^\n]*?
Forwarding packet, packet = \(Packet\)provider\[0\]-27[^\n]*?
Consuming packet, packet = \(Packet\)provider\[0\]-27[^\n]*?
Providing packet, packet = \(Packet\)provider\[0\]-28[^\n]*?
Processing packet, packet = \(Packet\)provider\[0\]-28[^\n]*?
Forwarding packet, packet = \(Packet\)provider\[0\]-28[^\n]*?
Consuming packet, packet = \(Packet\)provider\[0\]-28[^\n]*?
Pulling packet, packet = \(Packet\)requestProducer-18[^\n]*?
Processing packet, packet = \(Packet\)requestProducer-18[^\n]*?
Classifying packet, packet = \(Packet\)requestProducer-18[^\n]*?
Providing packet, packet = \(Packet\)provider\[1\]-25[^\n]*?
Processing packet, packet = \(Packet\)provider\[1\]-25[^\n]*?
Forwarding packet, packet = \(Packet\)provider\[1\]-25[^\n]*?
Consuming packet, packet = \(Packet\)provider\[1\]-25[^\n]*?
Providing packet, packet = \(Packet\)provider\[1\]-26[^\n]*?
Processing packet, packet = \(Packet\)provider\[1\]-26[^\n]*?
Forwarding packet, packet = \(Packet\)provider\[1\]-26[^\n]*?
Consuming packet, packet = \(Packet\)provider\[1\]-26[^\n]*?
Providing packet, packet = \(Packet\)provider\[1\]-27[^\n]*?
Processing packet, packet = \(Packet\)provider\[1\]-27[^\n]*?
Forwarding packet, packet = \(Packet\)provider\[1\]-27[^\n]*?
Consuming packet, packet = \(Packet\)provider\[1\]-27[^\n]*?
Producing packet, packet = \(Packet\)requestProducer-22[^\n]*?
Pushing packet, packet = \(Packet\)requestProducer-22[^\n]*?
Producing packet, packet = \(Packet\)requestProducer-23[^\n]*?
Pushing packet, packet = \(Packet\)requestProducer-23[^\n]*?
Providing packet, packet = \(Packet\)provider\[1\]-28[^\n]*?
Processing packet, packet = \(Packet\)provider\[1\]-28[^\n]*?
Forwarding packet, packet = \(Packet\)provider\[1\]-28[^\n]*?
Consuming packet, packet = \(Packet\)provider\[1\]-28[^\n]*?
Pulling packet, packet = \(Packet\)requestProducer-19[^\n]*?
Processing packet, packet = \(Packet\)requestProducer-19[^\n]*?
Classifying packet, packet = \(Packet\)requestProducer-19[^\n]*?
Providing packet, packet = \(Packet\)provider\[0\]-29[^\n]*?
Processing packet, packet = \(Packet\)provider\[0\]-29[^\n]*?
Forwarding packet, packet = \(Packet\)provider\[0\]-29[^\n]*?
Consuming packet, packet = \(Packet\)provider\[0\]-29[^\n]*?
Providing packet, packet = \(Packet\)provider\[0\]-30[^\n]*?
Processing packet, packet = \(Packet\)provider\[0\]-30[^\n]*?
Forwarding packet, packet = \(Packet\)provider\[0\]-30[^\n]*?
Consuming packet, packet = \(Packet\)provider\[0\]-30[^\n]*?
Providing packet, packet = \(Packet\)provider\[0\]-31[^\n]*?
Processing packet, packet = \(Packet\)provider\[0\]-31[^\n]*?
Forwarding packet, packet = \(Packet\)provider\[0\]-31[^\n]*?
Consuming packet, packet = \(Packet\)provider\[0\]-31[^\n]*?
Providing packet, packet = \(Packet\)provider\[0\]-32[^\n]*?
Processing packet, packet = \(Packet\)provider\[0\]-32[^\n]*?
Forwarding packet, packet = \(Packet\)provider\[0\]-32[^\n]*?
Consuming packet, packet = \(Packet\)provider\[0\]-32[^\n]*?
Producing packet, packet = \(Packet\)requestProducer-24[^\n]*?
Pushing packet, packet = \(Packet\)requestProducer-24[^\n]*?
Pulling packet, packet = \(Packet\)requestProducer-20[^\n]*?
Processing packet, packet = \(Packet\)requestProducer-20[^\n]*?
Classifying packet, packet = \(Packet\)requestProducer-20[^\n]*?
Providing packet, packet = \(Packet\)provider\[0\]-33[^\n]*?
Processing packet, packet = \(Packet\)provider\[0\]-33[^\n]*?
Forwarding packet, packet = \(Packet\)provider\[0\]-33[^\n]*?
Consuming packet, packet = \(Packet\)provider\[0\]-33[^\n]*?
Pulling packet, packet = \(Packet\)requestProducer-21[^\n]*?
Processing packet, packet = \(Packet\)requestProducer-21[^\n]*?
Classifying packet, packet = \(Packet\)requestProducer-21[^\n]*?
Providing packet, packet = \(Packet\)provider\[0\]-34[^\n]*?
Processing packet, packet = \(Packet\)provider\[0\]-34[^\n]*?
Forwarding packet, packet = \(Packet\)provider\[0\]-34[^\n]*?
Consuming packet, packet = \(Packet\)provider\[0\]-34[^\n]*?
Providing packet, packet = \(Packet\)provider\[0\]-35[^\n]*?
Processing packet, packet = \(Packet\)provider\[0\]-35[^\n]*?
Forwarding packet, packet = \(Packet\)provider\[0\]-35[^\n]*?
Consuming packet, packet = \(Packet\)provider\[0\]-35[^\n]*?
Providing packet, packet = \(Packet\)provider\[0\]-36[^\n]*?
Processing packet, packet = \(Packet\)provider\[0\]-36[^\n]*?
Forwarding packet, packet = \(Packet\)provider\[0\]-36[^\n]*?
Consuming packet, packet = \(Packet\)provider\[0\]-36[^\n]*?
Providing packet, packet = \(Packet\)provider\[0\]-37[^\n]*?
Processing packet, packet = \(Packet\)provider\[0\]-37[^\n]*?
Forwarding packet, packet = \(Packet\)provider\[0\]-37[^\n]*?
Consuming packet, packet = \(Packet\)provider\[0\]-37[^\n]*?
Pulling packet, packet = \(Packet\)requestProducer-22[^\n]*?
Processing packet, packet = \(Packet\)requestProducer-22[^\n]*?
Classifying packet, packet = \(Packet\)requestProducer-22[^\n]*?
Providing packet, packet = \(Packet\)provider\[0\]-38[^\n]*?
Processing packet, packet = \(Packet\)provider\[0\]-38[^\n]*?
Forwarding packet, packet = \(Packet\)provider\[0\]-38[^\n]*?
Consuming packet, packet = \(Packet\)provider\[0\]-38[^\n]*?
Providing packet, packet = \(Packet\)provider\[0\]-39[^\n]*?
Processing packet, packet = \(Packet\)provider\[0\]-39[^\n]*?
Forwarding packet, packet = \(Packet\)provider\[0\]-39[^\n]*?
Consuming packet, packet = \(Packet\)provider\[0\]-39[^\n]*?
Providing packet, packet = \(Packet\)provider\[0\]-40[^\n]*?
Processing packet, packet = \(Packet\)provider\[0\]-40[^\n]*?
Forwarding packet, packet = \(Packet\)provider\[0\]-40[^\n]*?
Consuming packet, packet = \(Packet\)provider\[0\]-40[^\n]*?
Providing packet, packet = \(Packet\)provider\[0\]-41[^\n]*?
Processing packet, packet = \(Packet\)provider\[0\]-41[^\n]*?
Forwarding packet, packet = \(Packet\)provider\[0\]-41[^\n]*?
Consuming packet, packet = \(Packet\)provider\[0\]-41[^\n]*?
Providing packet, packet = \(Packet\)provider\[0\]-42[^\n]*?
Processing packet, packet = \(Packet\)provider\[0\]-42[^\n]*?
Forwarding packet, packet = \(Packet\)provider\[0\]-42[^\n]*?
Consuming packet, packet = \(Packet\)provider\[0\]-42[^\n]*?
Pulling packet, packet = \(Packet\)requestProducer-23[^\n]*?
Processing packet, packet = \(Packet\)requestProducer-23[^\n]*?
Classifying packet, packet = \(Packet\)requestProducer-23[^\n]*?
Providing packet, packet = \(Packet\)provider\[1\]-29[^\n]*?
Processing packet, packet = \(Packet\)provider\[1\]-29[^\n]*?
Forwarding packet, packet = \(Packet\)provider\[1\]-29[^\n]*?
Consuming packet, packet = \(Packet\)provider\[1\]-29[^\n]*?
Providing packet, packet = \(Packet\)provider\[1\]-30[^\n]*?
Processing packet, packet = \(Packet\)provider\[1\]-30[^\n]*?
Forwarding packet, packet = \(Packet\)provider\[1\]-30[^\n]*?
Consuming packet, packet = \(Packet\)provider\[1\]-30[^\n]*?
Producing packet, packet = \(Packet\)requestProducer-25[^\n]*?
Pushing packet, packet = \(Packet\)requestProducer-25[^\n]*?
Pulling packet, packet = \(Packet\)requestProducer-24[^\n]*?
Processing packet, packet = \(Packet\)requestProducer-24[^\n]*?
Classifying packet, packet = \(Packet\)requestProducer-24[^\n]*?
Providing packet, packet = \(Packet\)provider\[1\]-31[^\n]*?
Processing packet, packet = \(Packet\)provider\[1\]-31[^\n]*?
Forwarding packet, packet = \(Packet\)provider\[1\]-31[^\n]*?
Consuming packet, packet = \(Packet\)provider\[1\]-31[^\n]*?
Producing packet, packet = \(Packet\)requestProducer-26[^\n]*?
Pushing packet, packet = \(Packet\)requestProducer-26[^\n]*?
Providing packet, packet = \(Packet\)provider\[1\]-32[^\n]*?
Processing packet, packet = \(Packet\)provider\[1\]-32[^\n]*?
Forwarding packet, packet = \(Packet\)provider\[1\]-32[^\n]*?
Consuming packet, packet = \(Packet\)provider\[1\]-32[^\n]*?
Providing packet, packet = \(Packet\)provider\[1\]-33[^\n]*?
Processing packet, packet = \(Packet\)provider\[1\]-33[^\n]*?
Forwarding packet, packet = \(Packet\)provider\[1\]-33[^\n]*?
Consuming packet, packet = \(Packet\)provider\[1\]-33[^\n]*?
Producing packet, packet = \(Packet\)requestProducer-27[^\n]*?
Pushing packet, packet = \(Packet\)requestProducer-27[^\n]*?
Providing packet, packet = \(Packet\)provider\[1\]-34[^\n]*?