%description:

This test contains a simplified version of a client/server and a request/response
based communication.*?

Request packets are produced periodically and randomly by an active packet
source (ActivePacketSource) in the client. The generated requests fall into one of
two categories based on the data they contain.*?

The server processes requests in order, one by one, using a compound consumer
(RequestConsumer). Each request is first classified based on the data it contains,
and then a certain number of tokens are generated as the request is consumed.*?

The tokens are added to a response server in a compound producer (ResponseProducer).*?
The response producer generates different traffic randomly over a period of time
for each kind of request.*?

The client consumes the response packets by a passive packet sink (PassivePacketSink).*?

%file: test.ned

import inet.queueing.sink.RequestConsumer;
import inet.queueing.sink.PassivePacketSink;
import inet.queueing.source.ActivePacketSource;
import inet.queueing.source.ResponseProducer;

network TestRequestResponse
{
    submodules:
        requestProducer: ActivePacketSource {
            @display("p=200,100");
        }
        responseConsumer: PassivePacketSink {
            @display("p=400,100");
        }
        requestConsumer: RequestConsumer {
            @display("p=200,200");
        }
        responseProducer: ResponseProducer {
            @display("p=400,200");
        }
    connections allowunconnected:
    	requestProducer.out --> requestConsumer.in;
        responseProducer.out --> responseConsumer.in;
}

%file: Test.cc
#include "inet/queueing/function/PacketClassifierFunction.h"
#include "inet/common/packet/Packet.h"

using namespace inet; 

static int testClassify(Packet *packet)
{
    return packet->getId() % 2;
}

Register_Packet_Classifier_Function(TestClassifier, testClassify);

%inifile: omnetpp.ini

[General]
network = TestRequestResponse
sim-time-limit = 100s
cmdenv-event-banners = false
cmdenv-log-prefix = "At %ts %N: "
*.requestProducer.packetLength = 1B
*.requestProducer.productionInterval = uniform(0s, 4s)
*.requestConsumer.numKind = 2
*.requestConsumer.classifier.classifierClass = "TestClassifier"
*.requestConsumer.responseProducerModule = "^.responseProducer"
*.requestConsumer.tokenGenerator[0].numTokensPerPacket = intuniform(1, 10)
*.requestConsumer.tokenGenerator[1].numTokensPerPacket = intuniform(1, 5)
*.responseProducer.numKind = 2
*.responseProducer.requestConsumerModule = "^.requestConsumer"
*.responseProducer.provider[0].packetLength = intuniform(1B, 10B)
*.responseProducer.provider[0].providingInterval = uniform(0s, 0.2s)
*.responseProducer.provider[1].packetLength = intuniform(1B, 100B)
*.responseProducer.provider[1].providingInterval = uniform(0s, 2s)

%# remove formatting
%subst: /\x1B\[[0-9;]*m//

%subst: /\nRunning simulation\.\.\.\n//

%contains-regex: stdout
At 0s requestProducer: Producing packet, .*?requestProducer-0.*?
At 0s queue: Pushing packet, .*?requestProducer-0.*?
At 0s queue: Pulling packet, .*?requestProducer-0.*?
At 0s server: Processing packet, .*?requestProducer-0.*?
At 0s classifier: Classifying packet, .*?requestProducer-0.*?
At 0s provider\[0\]: Providing packet, .*?provider\[0\]-0.*?
At 0s server\[0\]: Processing packet, .*?provider\[0\]-0.*?
At 0s multiplexer: Forwarding packet, .*?provider\[0\]-0.*?
At 0s responseConsumer: Consuming packet, .*?provider\[0\]-0.*?
At 0.120552674076s provider\[0\]: Providing packet, .*?provider\[0\]-1.*?
At 0.120552674076s server\[0\]: Processing packet, .*?provider\[0\]-1.*?
At 0.120552674076s multiplexer: Forwarding packet, .*?provider\[0\]-1.*?
At 0.120552674076s responseConsumer: Consuming packet, .*?provider\[0\]-1.*?
At 0.205283633434s provider\[0\]: Providing packet, .*?provider\[0\]-2.*?
At 0.205283633434s server\[0\]: Processing packet, .*?provider\[0\]-2.*?
At 0.205283633434s multiplexer: Forwarding packet, .*?provider\[0\]-2.*?
At 0.205283633434s responseConsumer: Consuming packet, .*?provider\[0\]-2.*?
At 0.334462456452s provider\[0\]: Providing packet, .*?provider\[0\]-3.*?
At 0.334462456452s server\[0\]: Processing packet, .*?provider\[0\]-3.*?
At 0.334462456452s multiplexer: Forwarding packet, .*?provider\[0\]-3.*?
At 0.334462456452s responseConsumer: Consuming packet, .*?provider\[0\]-3.*?
At 0.421979898447s provider\[0\]: Providing packet, .*?provider\[0\]-4.*?
At 0.421979898447s server\[0\]: Processing packet, .*?provider\[0\]-4.*?
At 0.421979898447s multiplexer: Forwarding packet, .*?provider\[0\]-4.*?
At 0.421979898447s responseConsumer: Consuming packet, .*?provider\[0\]-4.*?
At 0.600334498798s provider\[0\]: Providing packet, .*?provider\[0\]-5.*?
At 0.600334498798s server\[0\]: Processing packet, .*?provider\[0\]-5.*?
At 0.600334498798s multiplexer: Forwarding packet, .*?provider\[0\]-5.*?
At 0.600334498798s responseConsumer: Consuming packet, .*?provider\[0\]-5.*?
At 2.195254009217s requestProducer: Producing packet, .*?requestProducer-1.*?
At 2.195254009217s queue: Pushing packet, .*?requestProducer-1.*?
At 2.195254009217s queue: Pulling packet, .*?requestProducer-1.*?
At 2.195254009217s server: Processing packet, .*?requestProducer-1.*?
At 2.195254009217s classifier: Classifying packet, .*?requestProducer-1.*?
At 2.195254009217s provider\[1\]: Providing packet, .*?provider\[1\]-0.*?
At 2.195254009217s server\[1\]: Processing packet, .*?provider\[1\]-0.*?
At 2.195254009217s multiplexer: Forwarding packet, .*?provider\[1\]-0.*?
At 2.195254009217s responseConsumer: Consuming packet, .*?provider\[1\]-0.*?
At 5.362154142931s requestProducer: Producing packet, .*?requestProducer-2.*?
At 5.362154142931s queue: Pushing packet, .*?requestProducer-2.*?
At 5.362154142931s queue: Pulling packet, .*?requestProducer-2.*?
At 5.362154142931s server: Processing packet, .*?requestProducer-2.*?
At 5.362154142931s classifier: Classifying packet, .*?requestProducer-2.*?
At 5.362154142931s provider\[1\]: Providing packet, .*?provider\[1\]-1.*?
At 5.362154142931s server\[1\]: Processing packet, .*?provider\[1\]-1.*?
At 5.362154142931s multiplexer: Forwarding packet, .*?provider\[1\]-1.*?
At 5.362154142931s responseConsumer: Consuming packet, .*?provider\[1\]-1.*?
At 8.706469218247s requestProducer: Producing packet, .*?requestProducer-3.*?
At 8.706469218247s queue: Pushing packet, .*?requestProducer-3.*?
At 8.706469218247s queue: Pulling packet, .*?requestProducer-3.*?
At 8.706469218247s server: Processing packet, .*?requestProducer-3.*?
At 8.706469218247s classifier: Classifying packet, .*?requestProducer-3.*?
At 8.706469218247s provider\[1\]: Providing packet, .*?provider\[1\]-2.*?
At 8.706469218247s server\[1\]: Processing packet, .*?provider\[1\]-2.*?
At 8.706469218247s multiplexer: Forwarding packet, .*?provider\[1\]-2.*?
At 8.706469218247s responseConsumer: Consuming packet, .*?provider\[1\]-2.*?
At 8.787342814729s requestProducer: Producing packet, .*?requestProducer-4.*?
At 8.787342814729s queue: Pushing packet, .*?requestProducer-4.*?
At 10.371708903928s queue: Pulling packet, .*?requestProducer-4.*?
At 10.371708903928s server: Processing packet, .*?requestProducer-4.*?
At 10.371708903928s classifier: Classifying packet, .*?requestProducer-4.*?
At 10.371708903928s provider\[0\]: Providing packet, .*?provider\[0\]-6.*?
At 10.371708903928s server\[0\]: Processing packet, .*?provider\[0\]-6.*?
At 10.371708903928s multiplexer: Forwarding packet, .*?provider\[0\]-6.*?
At 10.371708903928s responseConsumer: Consuming packet, .*?provider\[0\]-6.*?
At 12.615963432007s requestProducer: Producing packet, .*?requestProducer-5.*?
At 12.615963432007s queue: Pushing packet, .*?requestProducer-5.*?
At 12.615963432007s queue: Pulling packet, .*?requestProducer-5.*?
At 12.615963432007s server: Processing packet, .*?requestProducer-5.*?
At 12.615963432007s classifier: Classifying packet, .*?requestProducer-5.*?
At 12.615963432007s provider\[1\]: Providing packet, .*?provider\[1\]-3.*?
At 12.615963432007s server\[1\]: Processing packet, .*?provider\[1\]-3.*?
At 12.615963432007s multiplexer: Forwarding packet, .*?provider\[1\]-3.*?
At 12.615963432007s responseConsumer: Consuming packet, .*?provider\[1\]-3.*?
At 13.538922157605s provider\[1\]: Providing packet, .*?provider\[1\]-4.*?
At 13.538922157605s server\[1\]: Processing packet, .*?provider\[1\]-4.*?
At 13.538922157605s multiplexer: Forwarding packet, .*?provider\[1\]-4.*?
At 13.538922157605s responseConsumer: Consuming packet, .*?provider\[1\]-4.*?
At 15.812597687357s requestProducer: Producing packet, .*?requestProducer-6.*?
At 15.812597687357s queue: Pushing packet, .*?requestProducer-6.*?
At 15.812597687357s queue: Pulling packet, .*?requestProducer-6.*?
At 15.812597687357s server: Processing packet, .*?requestProducer-6.*?
At 15.812597687357s classifier: Classifying packet, .*?requestProducer-6.*?
At 15.812597687357s provider\[0\]: Providing packet, .*?provider\[0\]-7.*?
At 15.812597687357s server\[0\]: Processing packet, .*?provider\[0\]-7.*?
At 15.812597687357s multiplexer: Forwarding packet, .*?provider\[0\]-7.*?
At 15.812597687357s responseConsumer: Consuming packet, .*?provider\[0\]-7.*?
At 15.940581890755s provider\[0\]: Providing packet, .*?provider\[0\]-8.*?
At 15.940581890755s server\[0\]: Processing packet, .*?provider\[0\]-8.*?
At 15.940581890755s multiplexer: Forwarding packet, .*?provider\[0\]-8.*?
At 15.940581890755s responseConsumer: Consuming packet, .*?provider\[0\]-8.*?
At 15.969252547855s provider\[0\]: Providing packet, .*?provider\[0\]-9.*?
At 15.969252547855s server\[0\]: Processing packet, .*?provider\[0\]-9.*?
At 15.969252547855s multiplexer: Forwarding packet, .*?provider\[0\]-9.*?
At 15.969252547855s responseConsumer: Consuming packet, .*?provider\[0\]-9.*?
At 16.158186331578s provider\[0\]: Providing packet, .*?provider\[0\]-10.*?
At 16.158186331578s server\[0\]: Processing packet, .*?provider\[0\]-10.*?
At 16.158186331578s multiplexer: Forwarding packet, .*?provider\[0\]-10.*?
At 16.158186331578s responseConsumer: Consuming packet, .*?provider\[0\]-10.*?
At 16.262555997214s provider\[0\]: Providing packet, .*?provider\[0\]-11.*?
At 16.262555997214s server\[0\]: Processing packet, .*?provider\[0\]-11.*?
At 16.262555997214s multiplexer: Forwarding packet, .*?provider\[0\]-11.*?
At 16.262555997214s responseConsumer: Consuming packet, .*?provider\[0\]-11.*?
At 16.285695382395s requestProducer: Producing packet, .*?requestProducer-7.*?
At 16.285695382395s queue: Pushing packet, .*?requestProducer-7.*?
At 16.35727608176s provider\[0\]: Providing packet, .*?provider\[0\]-12.*?
At 16.35727608176s server\[0\]: Processing packet, .*?provider\[0\]-12.*?
At 16.35727608176s multiplexer: Forwarding packet, .*?provider\[0\]-12.*?
At 16.35727608176s responseConsumer: Consuming packet, .*?provider\[0\]-12.*?
At 16.448506148952s provider\[0\]: Providing packet, .*?provider\[0\]-13.*?
At 16.448506148952s server\[0\]: Processing packet, .*?provider\[0\]-13.*?
At 16.448506148952s multiplexer: Forwarding packet, .*?provider\[0\]-13.*?
At 16.448506148952s responseConsumer: Consuming packet, .*?provider\[0\]-13.*?
At 16.475549783605s provider\[0\]: Providing packet, .*?provider\[0\]-14.*?
At 16.475549783605s server\[0\]: Processing packet, .*?provider\[0\]-14.*?
At 16.475549783605s multiplexer: Forwarding packet, .*?provider\[0\]-14.*?
At 16.475549783605s responseConsumer: Consuming packet, .*?provider\[0\]-14.*?
At 16.54037798443s queue: Pulling packet, .*?requestProducer-7.*?
At 16.54037798443s server: Processing packet, .*?requestProducer-7.*?
At 16.54037798443s classifier: Classifying packet, .*?requestProducer-7.*?
At 16.54037798443s provider\[1\]: Providing packet, .*?provider\[1\]-5.*?
At 16.54037798443s server\[1\]: Processing packet, .*?provider\[1\]-5.*?
At 16.54037798443s multiplexer: Forwarding packet, .*?provider\[1\]-5.*?
At 16.54037798443s responseConsumer: Consuming packet, .*?provider\[1\]-5.*?
At 17.343917828054s requestProducer: Producing packet, .*?requestProducer-8.*?
At 17.343917828054s queue: Pushing packet, .*?requestProducer-8.*?
At 17.774245981734s queue: Pulling packet, .*?requestProducer-8.*?
At 17.774245981734s server: Processing packet, .*?requestProducer-8.*?
At 17.774245981734s classifier: Classifying packet, .*?requestProducer-8.*?
At 17.774245981734s provider\[0\]: Providing packet, .*?provider\[0\]-15.*?
At 17.774245981734s server\[0\]: Processing packet, .*?provider\[0\]-15.*?
At 17.774245981734s multiplexer: Forwarding packet, .*?provider\[0\]-15.*?
At 17.774245981734s responseConsumer: Consuming packet, .*?provider\[0\]-15.*?
At 17.910610041303s provider\[0\]: Providing packet, .*?provider\[0\]-16.*?
At 17.910610041303s server\[0\]: Processing packet, .*?provider\[0\]-16.*?
At 17.910610041303s multiplexer: Forwarding packet, .*?provider\[0\]-16.*?
At 17.910610041303s responseConsumer: Consuming packet, .*?provider\[0\]-16.*?
At 18.091079756945s provider\[0\]: Providing packet, .*?provider\[0\]-17.*?
At 18.091079756945s server\[0\]: Processing packet, .*?provider\[0\]-17.*?
At 18.091079756945s multiplexer: Forwarding packet, .*?provider\[0\]-17.*?
At 18.091079756945s responseConsumer: Consuming packet, .*?provider\[0\]-17.*?
At 18.110935827253s provider\[0\]: Providing packet, .*?provider\[0\]-18.*?
At 18.110935827253s server\[0\]: Processing packet, .*?provider\[0\]-18.*?
At 18.110935827253s multiplexer: Forwarding packet, .*?provider\[0\]-18.*?
At 18.110935827253s responseConsumer: Consuming packet, .*?provider\[0\]-18.*?
At 18.304897640973s provider\[0\]: Providing packet, .*?provider\[0\]-19.*?
At 18.304897640973s server\[0\]: Processing packet, .*?provider\[0\]-19.*?
At 18.304897640973s multiplexer: Forwarding packet, .*?provider\[0\]-19.*?
At 18.304897640973s responseConsumer: Consuming packet, .*?provider\[0\]-19.*?
At 18.889873740264s requestProducer: Producing packet, .*?requestProducer-9.*?
At 18.889873740264s queue: Pushing packet, .*?requestProducer-9.*?
At 18.889873740264s queue: Pulling packet, .*?requestProducer-9.*?
At 18.889873740264s server: Processing packet, .*?requestProducer-9.*?
At 18.889873740264s classifier: Classifying packet, .*?requestProducer-9.*?
At 18.889873740264s provider\[1\]: Providing packet, .*?provider\[1\]-6.*?
At 18.889873740264s server\[1\]: Processing packet, .*?provider\[1\]-6.*?
At 18.889873740264s multiplexer: Forwarding packet, .*?provider\[1\]-6.*?
At 18.889873740264s responseConsumer: Consuming packet, .*?provider\[1\]-6.*?
At 19.14772633696s provider\[1\]: Providing packet, .*?provider\[1\]-7.*?
At 19.14772633696s server\[1\]: Processing packet, .*?provider\[1\]-7.*?
At 19.14772633696s multiplexer: Forwarding packet, .*?provider\[1\]-7.*?
At 19.14772633696s responseConsumer: Consuming packet, .*?provider\[1\]-7.*?
At 19.573512084783s requestProducer: Producing packet, .*?requestProducer-10.*?
At 19.573512084783s queue: Pushing packet, .*?requestProducer-10.*?
At 19.77858303627s provider\[1\]: Providing packet, .*?provider\[1\]-8.*?
At 19.77858303627s server\[1\]: Processing packet, .*?provider\[1\]-8.*?
At 19.77858303627s multiplexer: Forwarding packet, .*?provider\[1\]-8.*?
At 19.77858303627s responseConsumer: Consuming packet, .*?provider\[1\]-8.*?
At 20.428677491378s queue: Pulling packet, .*?requestProducer-10.*?
At 20.428677491378s server: Processing packet, .*?requestProducer-10.*?
At 20.428677491378s classifier: Classifying packet, .*?requestProducer-10.*?
At 20.428677491378s provider\[1\]: Providing packet, .*?provider\[1\]-9.*?
At 20.428677491378s server\[1\]: Processing packet, .*?provider\[1\]-9.*?
At 20.428677491378s multiplexer: Forwarding packet, .*?provider\[1\]-9.*?
At 20.428677491378s responseConsumer: Consuming packet, .*?provider\[1\]-9.*?
At 21.697225597687s provider\[1\]: Providing packet, .*?provider\[1\]-10.*?
At 21.697225597687s server\[1\]: Processing packet, .*?provider\[1\]-10.*?
At 21.697225597687s multiplexer: Forwarding packet, .*?provider\[1\]-10.*?
At 21.697225597687s responseConsumer: Consuming packet, .*?provider\[1\]-10.*?
At 22.004834751599s requestProducer: Producing packet, .*?requestProducer-11.*?
At 22.004834751599s queue: Pushing packet, .*?requestProducer-11.*?
At 22.413013978862s requestProducer: Producing packet, .*?requestProducer-12.*?
At 22.413013978862s queue: Pushing packet, .*?requestProducer-12.*?
At 23.615124136209s provider\[1\]: Providing packet, .*?provider\[1\]-11.*?
At 23.615124136209s server\[1\]: Processing packet, .*?provider\[1\]-11.*?
At 23.615124136209s multiplexer: Forwarding packet, .*?provider\[1\]-11.*?
At 23.615124136209s responseConsumer: Consuming packet, .*?provider\[1\]-11.*?
At 25.024175254629s requestProducer: Producing packet, .*?requestProducer-13.*?
At 25.024175254629s queue: Pushing packet, .*?requestProducer-13.*?
At 25.605723267421s provider\[1\]: Providing packet, .*?provider\[1\]-12.*?
At 25.605723267421s server\[1\]: Processing packet, .*?provider\[1\]-12.*?
At 25.605723267421s multiplexer: Forwarding packet, .*?provider\[1\]-12.*?
At 25.605723267421s responseConsumer: Consuming packet, .*?provider\[1\]-12.*?
At 26.112306470051s provider\[1\]: Providing packet, .*?provider\[1\]-13.*?
At 26.112306470051s server\[1\]: Processing packet, .*?provider\[1\]-13.*?
At 26.112306470051s multiplexer: Forwarding packet, .*?provider\[1\]-13.*?
At 26.112306470051s responseConsumer: Consuming packet, .*?provider\[1\]-13.*?
At 27.044928015675s queue: Pulling packet, .*?requestProducer-11.*?
At 27.044928015675s server: Processing packet, .*?requestProducer-11.*?
At 27.044928015675s classifier: Classifying packet, .*?requestProducer-11.*?
At 27.044928015675s provider\[1\]: Providing packet, .*?provider\[1\]-14.*?
At 27.044928015675s server\[1\]: Processing packet, .*?provider\[1\]-14.*?
At 27.044928015675s multiplexer: Forwarding packet, .*?provider\[1\]-14.*?
At 27.044928015675s responseConsumer: Consuming packet, .*?provider\[1\]-14.*?
At 27.636608542875s requestProducer: Producing packet, .*?requestProducer-14.*?
At 27.636608542875s queue: Pushing packet, .*?requestProducer-14.*?
At 28.272486888804s requestProducer: Producing packet, .*?requestProducer-15.*?
At 28.272486888804s queue: Pushing packet, .*?requestProducer-15.*?
At 28.291948227677s provider\[1\]: Providing packet, .*?provider\[1\]-15.*?
At 28.291948227677s server\[1\]: Processing packet, .*?provider\[1\]-15.*?
At 28.291948227677s multiplexer: Forwarding packet, .*?provider\[1\]-15.*?
At 28.291948227677s responseConsumer: Consuming packet, .*?provider\[1\]-15.*?
At 29.62451735884s requestProducer: Producing packet, .*?requestProducer-16.*?
At 29.62451735884s queue: Pushing packet, .*?requestProducer-16.*?
At 29.641452872194s provider\[1\]: Providing packet, .*?provider\[1\]-16.*?
At 29.641452872194s server\[1\]: Processing packet, .*?provider\[1\]-16.*?
At 29.641452872194s multiplexer: Forwarding packet, .*?provider\[1\]-16.*?
At 29.641452872194s responseConsumer: Consuming packet, .*?provider\[1\]-16.*?
At 29.917818771209s provider\[1\]: Providing packet, .*?provider\[1\]-17.*?
At 29.917818771209s server\[1\]: Processing packet, .*?provider\[1\]-17.*?
At 29.917818771209s multiplexer: Forwarding packet, .*?provider\[1\]-17.*?
At 29.917818771209s responseConsumer: Consuming packet, .*?provider\[1\]-17.*?
At 30.31098348461s queue: Pulling packet, .*?requestProducer-12.*?
At 30.31098348461s server: Processing packet, .*?requestProducer-12.*?
At 30.31098348461s classifier: Classifying packet, .*?requestProducer-12.*?
At 30.31098348461s provider\[0\]: Providing packet, .*?provider\[0\]-20.*?
At 30.31098348461s server\[0\]: Processing packet, .*?provider\[0\]-20.*?
At 30.31098348461s multiplexer: Forwarding packet, .*?provider\[0\]-20.*?
At 30.31098348461s responseConsumer: Consuming packet, .*?provider\[0\]-20.*?
At 30.44348885822s queue: Pulling packet, .*?requestProducer-13.*?
At 30.44348885822s server: Processing packet, .*?requestProducer-13.*?
At 30.44348885822s classifier: Classifying packet, .*?requestProducer-13.*?
At 30.44348885822s provider\[0\]: Providing packet, .*?provider\[0\]-21.*?
At 30.44348885822s server\[0\]: Processing packet, .*?provider\[0\]-21.*?
At 30.44348885822s multiplexer: Forwarding packet, .*?provider\[0\]-21.*?
At 30.44348885822s responseConsumer: Consuming packet, .*?provider\[0\]-21.*?
At 30.568058076872s queue: Pulling packet, .*?requestProducer-14.*?
At 30.568058076872s server: Processing packet, .*?requestProducer-14.*?
At 30.568058076872s classifier: Classifying packet, .*?requestProducer-14.*?
At 30.568058076872s provider\[0\]: Providing packet, .*?provider\[0\]-22.*?
At 30.568058076872s server\[0\]: Processing packet, .*?provider\[0\]-22.*?
At 30.568058076872s multiplexer: Forwarding packet, .*?provider\[0\]-22.*?
At 30.568058076872s responseConsumer: Consuming packet, .*?provider\[0\]-22.*?
At 30.587277757096s provider\[0\]: Providing packet, .*?provider\[0\]-23.*?
At 30.587277757096s server\[0\]: Processing packet, .*?provider\[0\]-23.*?
At 30.587277757096s multiplexer: Forwarding packet, .*?provider\[0\]-23.*?
At 30.587277757096s responseConsumer: Consuming packet, .*?provider\[0\]-23.*?
At 30.78256965014s provider\[0\]: Providing packet, .*?provider\[0\]-24.*?
At 30.78256965014s server\[0\]: Processing packet, .*?provider\[0\]-24.*?
At 30.78256965014s multiplexer: Forwarding packet, .*?provider\[0\]-24.*?
At 30.78256965014s responseConsumer: Consuming packet, .*?provider\[0\]-24.*?
At 30.876299889803s provider\[0\]: Providing packet, .*?provider\[0\]-25.*?
At 30.876299889803s server\[0\]: Processing packet, .*?provider\[0\]-25.*?
At 30.876299889803s multiplexer: Forwarding packet, .*?provider\[0\]-25.*?
At 30.876299889803s responseConsumer: Consuming packet, .*?provider\[0\]-25.*?
At 30.997268993406s provider\[0\]: Providing packet, .*?provider\[0\]-26.*?
At 30.997268993406s server\[0\]: Processing packet, .*?provider\[0\]-26.*?
At 30.997268993406s multiplexer: Forwarding packet, .*?provider\[0\]-26.*?
At 30.997268993406s responseConsumer: Consuming packet, .*?provider\[0\]-26.*?
At 31.145121709675s queue: Pulling packet, .*?requestProducer-15.*?
At 31.145121709675s server: Processing packet, .*?requestProducer-15.*?
At 31.145121709675s classifier: Classifying packet, .*?requestProducer-15.*?
At 31.145121709675s provider\[1\]: Providing packet, .*?provider\[1\]-18.*?
At 31.145121709675s server\[1\]: Processing packet, .*?provider\[1\]-18.*?
At 31.145121709675s multiplexer: Forwarding packet, .*?provider\[1\]-18.*?
At 31.145121709675s responseConsumer: Consuming packet, .*?provider\[1\]-18.*?
At 31.710735628613s provider\[1\]: Providing packet, .*?provider\[1\]-19.*?
At 31.710735628613s server\[1\]: Processing packet, .*?provider\[1\]-19.*?
At 31.710735628613s multiplexer: Forwarding packet, .*?provider\[1\]-19.*?
At 31.710735628613s responseConsumer: Consuming packet, .*?provider\[1\]-19.*?
At 31.95112875779s provider\[1\]: Providing packet, .*?provider\[1\]-20.*?
At 31.95112875779s server\[1\]: Processing packet, .*?provider\[1\]-20.*?
At 31.95112875779s multiplexer: Forwarding packet, .*?provider\[1\]-20.*?
At 31.95112875779s responseConsumer: Consuming packet, .*?provider\[1\]-20.*?
At 32.249835726806s requestProducer: Producing packet, .*?requestProducer-17.*?
At 32.249835726806s queue: Pushing packet, .*?requestProducer-17.*?
At 32.724746583962s requestProducer: Producing packet, .*?requestProducer-18.*?
At 32.724746583962s queue: Pushing packet, .*?requestProducer-18.*?
At 32.912915830266s queue: Pulling packet, .*?requestProducer-16.*?
At 32.912915830266s server: Processing packet, .*?requestProducer-16.*?
At 32.912915830266s classifier: Classifying packet, .*?requestProducer-16.*?
At 32.912915830266s provider\[1\]: Providing packet, .*?provider\[1\]-21.*?
At 32.912915830266s server\[1\]: Processing packet, .*?provider\[1\]-21.*?
At 32.912915830266s multiplexer: Forwarding packet, .*?provider\[1\]-21.*?
At 32.912915830266s responseConsumer: Consuming packet, .*?provider\[1\]-21.*?
At 34.749386776004s provider\[1\]: Providing packet, .*?provider\[1\]-22.*?
At 34.749386776004s server\[1\]: Processing packet, .*?provider\[1\]-22.*?
At 34.749386776004s multiplexer: Forwarding packet, .*?provider\[1\]-22.*?
At 34.749386776004s responseConsumer: Consuming packet, .*?provider\[1\]-22.*?
At 35.479391328992s requestProducer: Producing packet, .*?requestProducer-19.*?
At 35.479391328992s queue: Pushing packet, .*?requestProducer-19.*?
At 36.134331014704s provider\[1\]: Providing packet, .*?provider\[1\]-23.*?
At 36.134331014704s server\[1\]: Processing packet, .*?provider\[1\]-23.*?
At 36.134331014704s multiplexer: Forwarding packet, .*?provider\[1\]-23.*?
At 36.134331014704s responseConsumer: Consuming packet, .*?provider\[1\]-23.*?
At 37.740146791564s requestProducer: Producing packet, .*?requestProducer-20.*?
At 37.740146791564s queue: Pushing packet, .*?requestProducer-20.*?
At 37.864536142673s provider\[1\]: Providing packet, .*?provider\[1\]-24.*?
At 37.864536142673s server\[1\]: Processing packet, .*?provider\[1\]-24.*?
At 37.864536142673s multiplexer: Forwarding packet, .*?provider\[1\]-24.*?
At 37.864536142673s responseConsumer: Consuming packet, .*?provider\[1\]-24.*?
At 38.801704755986s requestProducer: Producing packet, .*?requestProducer-21.*?
At 38.801704755986s queue: Pushing packet, .*?requestProducer-21.*?
At 38.911032248519s queue: Pulling packet, .*?requestProducer-17.*?
At 38.911032248519s server: Processing packet, .*?requestProducer-17.*?
At 38.911032248519s classifier: Classifying packet, .*?requestProducer-17.*?
At 38.911032248519s provider\[0\]: Providing packet, .*?provider\[0\]-27.*?
At 38.911032248519s server\[0\]: Processing packet, .*?provider\[0\]-27.*?
At 38.911032248519s multiplexer: Forwarding packet, .*?provider\[0\]-27.*?
At 38.911032248519s responseConsumer: Consuming packet, .*?provider\[0\]-27.*?
At 38.927654745847s provider\[0\]: Providing packet, .*?provider\[0\]-28.*?
At 38.927654745847s server\[0\]: Processing packet, .*?provider\[0\]-28.*?
At 38.927654745847s multiplexer: Forwarding packet, .*?provider\[0\]-28.*?
At 38.927654745847s responseConsumer: Consuming packet, .*?provider\[0\]-28.*?
At 38.991368536836s queue: Pulling packet, .*?requestProducer-18.*?
At 38.991368536836s server: Processing packet, .*?requestProducer-18.*?
At 38.991368536836s classifier: Classifying packet, .*?requestProducer-18.*?
At 38.991368536836s provider\[1\]: Providing packet, .*?provider\[1\]-25.*?
At 38.991368536836s server\[1\]: Processing packet, .*?provider\[1\]-25.*?
At 38.991368536836s multiplexer: Forwarding packet, .*?provider\[1\]-25.*?
At 38.991368536836s responseConsumer: Consuming packet, .*?provider\[1\]-25.*?
At 40.676052695139s provider\[1\]: Providing packet, .*?provider\[1\]-26.*?
At 40.676052695139s server\[1\]: Processing packet, .*?provider\[1\]-26.*?
At 40.676052695139s multiplexer: Forwarding packet, .*?provider\[1\]-26.*?
At 40.676052695139s responseConsumer: Consuming packet, .*?provider\[1\]-26.*?
At 41.970400972291s provider\[1\]: Providing packet, .*?provider\[1\]-27.*?
At 41.970400972291s server\[1\]: Processing packet, .*?provider\[1\]-27.*?
At 41.970400972291s multiplexer: Forwarding packet, .*?provider\[1\]-27.*?
At 41.970400972291s responseConsumer: Consuming packet, .*?provider\[1\]-27.*?
At 42.468596582303s requestProducer: Producing packet, .*?requestProducer-22.*?
At 42.468596582303s queue: Pushing packet, .*?requestProducer-22.*?
At 43.626220946202s requestProducer: Producing packet, .*?requestProducer-23.*?
At 43.626220946202s queue: Pushing packet, .*?requestProducer-23.*?
At 43.653173216618s provider\[1\]: Providing packet, .*?provider\[1\]-28.*?
At 43.653173216618s server\[1\]: Processing packet, .*?provider\[1\]-28.*?
At 43.653173216618s multiplexer: Forwarding packet, .*?provider\[1\]-28.*?
At 43.653173216618s responseConsumer: Consuming packet, .*?provider\[1\]-28.*?
At 44.448814719915s queue: Pulling packet, .*?requestProducer-19.*?
At 44.448814719915s server: Processing packet, .*?requestProducer-19.*?
At 44.448814719915s classifier: Classifying packet, .*?requestProducer-19.*?
At 44.448814719915s provider\[0\]: Providing packet, .*?provider\[0\]-29.*?
At 44.448814719915s server\[0\]: Processing packet, .*?provider\[0\]-29.*?
At 44.448814719915s multiplexer: Forwarding packet, .*?provider\[0\]-29.*?
At 44.448814719915s responseConsumer: Consuming packet, .*?provider\[0\]-29.*?
At 44.452836230024s provider\[0\]: Providing packet, .*?provider\[0\]-30.*?
At 44.452836230024s server\[0\]: Processing packet, .*?provider\[0\]-30.*?
At 44.452836230024s multiplexer: Forwarding packet, .*?provider\[0\]-30.*?
At 44.452836230024s responseConsumer: Consuming packet, .*?provider\[0\]-30.*?
At 44.526797849172s provider\[0\]: Providing packet, .*?provider\[0\]-31.*?
At 44.526797849172s server\[0\]: Processing packet, .*?provider\[0\]-31.*?
At 44.526797849172s multiplexer: Forwarding packet, .*?provider\[0\]-31.*?
At 44.526797849172s responseConsumer: Consuming packet, .*?provider\[0\]-31.*?
At 44.662361157033s provider\[0\]: Providing packet, .*?provider\[0\]-32.*?
At 44.662361157033s server\[0\]: Processing packet, .*?provider\[0\]-32.*?
At 44.662361157033s multiplexer: Forwarding packet, .*?provider\[0\]-32.*?
At 44.662361157033s responseConsumer: Consuming packet, .*?provider\[0\]-32.*?
At 44.685141603464s requestProducer: Producing packet, .*?requestProducer-24.*?
At 44.685141603464s queue: Pushing packet, .*?requestProducer-24.*?
At 44.716362750762s queue: Pulling packet, .*?requestProducer-20.*?
At 44.716362750762s server: Processing packet, .*?requestProducer-20.*?
At 44.716362750762s classifier: Classifying packet, .*?requestProducer-20.*?
At 44.716362750762s provider\[0\]: Providing packet, .*?provider\[0\]-33.*?
At 44.716362750762s server\[0\]: Processing packet, .*?provider\[0\]-33.*?
At 44.716362750762s multiplexer: Forwarding packet, .*?provider\[0\]-33.*?