%description:

In this test, packets are passed through from the source to the sink periodically
(randomly) by an active packet processor (PacketServer). The packets are generated
by a passive packet source (PassivePacketSource) and consumed by a passive packet sink
(PassivePacketSink).

%file: test.ned

import inet.queueing.sink.PassivePacketSink;
import inet.queueing.source.PassivePacketSource;
import inet.queueing.server.PacketServer;

network TestServer
{
    submodules:
        provider: PassivePacketSource {
            @display("p=100,100");
        }
        server: PacketServer {
            @display("p=200,100");
        }
        consumer: PassivePacketSink {
            @display("p=300,100");
        }
    connections allowunconnected:
        provider.out --> server.in;
        server.out --> consumer.in;
}

%inifile: omnetpp.ini

[General]
network = TestServer
sim-time-limit = 10s
cmdenv-event-banners = false
cmdenv-log-prefix = "At %ts %N: "
*.provider.packetLength = 1B
*.server.processingTime = uniform(0s, 2s)

%# remove formatting
%subst: /\x1B\[[0-9;]*m//

%subst: /\nRunning simulation\.\.\.\n//

%contains-regex: stdout
At 0s provider: Providing packet, .*?provider-0.*?
At 0s server: Processing packet started, .*?provider-0.*?
At 1.097627004609s server: Processing packet ended, .*?provider-0.*?
At 1.097627004609s consumer: Consuming packet, .*?provider-0.*?
At 1.097627004609s provider: Providing packet, .*?provider-1.*?
At 1.097627004609s server: Processing packet started, .*?provider-1.*?
At 2.283316237387s server: Processing packet ended, .*?provider-1.*?
At 2.283316237387s consumer: Consuming packet, .*?provider-1.*?
At 2.283316237387s provider: Providing packet, .*?provider-2.*?
At 2.283316237387s server: Processing packet started, .*?provider-2.*?
At 3.71369496733s server: Processing packet ended, .*?provider-2.*?
At 3.71369496733s consumer: Consuming packet, .*?provider-2.*?
At 3.71369496733s provider: Providing packet, .*?provider-3.*?
At 3.71369496733s server: Processing packet started, .*?provider-3.*?
At 5.40222645551s server: Processing packet ended, .*?provider-3.*?
At 5.40222645551s consumer: Consuming packet, .*?provider-3.*?
At 5.40222645551s provider: Providing packet, .*?provider-4.*?
At 5.40222645551s server: Processing packet started, .*?provider-4.*?
At 6.607753196266s server: Processing packet ended, .*?provider-4.*?
At 6.607753196266s consumer: Consuming packet, .*?provider-4.*?
At 6.607753196266s provider: Providing packet, .*?provider-5.*?
At 6.607753196266s server: Processing packet started, .*?provider-5.*?
At 8.323644435965s server: Processing packet ended, .*?provider-5.*?
At 8.323644435965s consumer: Consuming packet, .*?provider-5.*?
At 8.323644435965s provider: Providing packet, .*?provider-6.*?
At 8.323644435965s server: Processing packet started, .*?provider-6.*?
At 9.413410790731s server: Processing packet ended, .*?provider-6.*?
At 9.413410790731s consumer: Consuming packet, .*?provider-6.*?
At 9.413410790731s provider: Providing packet, .*?provider-7.*?
At 9.413410790731s server: Processing packet started, .*?provider-7.*?

<!> Simulation time limit reached -- at t=10s
