%description:

TODO

%file: test.ned

import inet.queueing.meter.TokenBucketMeter;
import inet.queueing.sink.PassivePacketSink;
import inet.queueing.source.ActivePacketSource;

network TestTokenBucket
{
    submodules:
        producer: ActivePacketSource {
            @display("p=100,100");
        }
        meter: TokenBucketMeter {
            @display("p=200,100");
        }
        consumer: PassivePacketSink {
            @display("p=300,100");
        }
    connections allowunconnected:
        producer.out --> meter.in;
        meter.out --> consumer.in;
}

%inifile: omnetpp.ini

[General]
network = TestTokenBucket
sim-time-limit = 10s
cmdenv-event-banners = false
*.producer.packetLength = 1B
*.producer.productionInterval = exponential(1s)
*.meter.tokenProductionRate = 4
*.meter.label = "green"

%# remove formatting
%subst: /\x1B\[[0-9;]*m//

%subst: /\nRunning simulation\.\.\.\n//

%contains-regex: stdout
Producing packet, .*?producer-0.*?
Metering packet, .*?producer-0.*?
Checking tokens for packet, .*?8.*?, .*?0.*?, .*?producer-0.*?
Insufficient number of tokens for packet, .*?8.*?, .*?0.*?, .*?producer-0.*?
Consuming packet, .*?producer-0.*?
Producing packet, .*?producer-1.*?
Metering packet, .*?producer-1.*?
Checking tokens for packet, .*?8.*?, .*?3.1835.*?, .*?producer-1.*?
Insufficient number of tokens for packet, .*?8.*?, .*?3.1835.*?, .*?producer-1.*?
Consuming packet, .*?producer-1.*?
Producing packet, .*?producer-2.*?
Metering packet, .*?producer-2.*?
Checking tokens for packet, .*?8.*?, .*?6.77774.*?, .*?producer-2.*?
Insufficient number of tokens for packet, .*?8.*?, .*?6.77774.*?, .*?producer-2.*?
Consuming packet, .*?producer-2.*?
Producing packet, .*?producer-3.*?
Metering packet, .*?producer-3.*?
Checking tokens for packet, .*?8.*?, .*?11.8015.*?, .*?producer-3.*?
Removed tokens, labeling packet, .*?8.*?, .*?3.80146.*?, .*?green.*?, .*?producer-3.*?
Consuming packet, .*?producer-3.*?
Producing packet, .*?producer-4.*?
Metering packet, .*?producer-4.*?
Checking tokens for packet, .*?8.*?, .*?11.2399.*?, .*?producer-4.*?
Removed tokens, labeling packet, .*?8.*?, .*?3.23988.*?, .*?green.*?, .*?producer-4.*?
Consuming packet, .*?producer-4.*?
Producing packet, .*?producer-5.*?
Metering packet, .*?producer-5.*?
Checking tokens for packet, .*?8.*?, .*?6.93277.*?, .*?producer-5.*?
Insufficient number of tokens for packet, .*?8.*?, .*?6.93277.*?, .*?producer-5.*?
Consuming packet, .*?producer-5.*?
Producing packet, .*?producer-6.*?
Metering packet, .*?producer-6.*?
Checking tokens for packet, .*?8.*?, .*?14.739.*?, .*?producer-6.*?
Removed tokens, labeling packet, .*?8.*?, .*?6.73895.*?, .*?green.*?, .*?producer-6.*?
Consuming packet, .*?producer-6.*?
Producing packet, .*?producer-7.*?
Metering packet, .*?producer-7.*?
Checking tokens for packet, .*?8.*?, .*?9.88776.*?, .*?producer-7.*?
Removed tokens, labeling packet, .*?8.*?, .*?1.88776.*?, .*?green.*?, .*?producer-7.*?
Consuming packet, .*?producer-7.*?
