%description:

TODO

%file: test.ned

import inet.queueing.shaper.TokenBucket;
import inet.queueing.sink.PassivePacketSink;
import inet.queueing.source.ActivePacketSource;
import inet.queueing.tokengenerator.TimeBasedTokenGenerator;

network TestTokenBucket
{
    submodules:
        producer: ActivePacketSource {
            @display("p=100,100");
        }
        bucket: TokenBucket {
            @display("p=200,100");
        }
        consumer: PassivePacketSink {
            @display("p=300,100");
        }
        tokenGenerator: TimeBasedTokenGenerator {
            @display("p=100,200");
        }
    connections allowunconnected:
        producer.out --> bucket.in;
        bucket.out --> consumer.in;
}

%inifile: omnetpp.ini

[General]
network = TestTokenBucket
sim-time-limit = 10s
cmdenv-event-banners = false
*.producer.packetLength = 1B
*.producer.productionInterval = uniform(0s, 2s)
*.bucket.server.maxNumTokens = 10
*.tokenGenerator.serverModule = "^.bucket.server"
*.tokenGenerator.generationInterval = uniform(0s, 2s)

%contains: stdout
Producing packet producer-0.
Pushing packet producer-0 into the queue.

Running simulation...
Producing packet producer-1.
Pushing packet producer-1 into the queue.
Pulling packet producer-0 from the queue.
Processing packet producer-0.
Consuming packet producer-0.
Producing packet producer-2.
Pushing packet producer-2 into the queue.
Pulling packet producer-1 from the queue.
Processing packet producer-1.
Consuming packet producer-1.
Producing packet producer-3.
Pushing packet producer-3 into the queue.
Pulling packet producer-2 from the queue.
Processing packet producer-2.
Consuming packet producer-2.
Producing packet producer-4.
Pushing packet producer-4 into the queue.
Producing packet producer-5.
Pushing packet producer-5 into the queue.
Pulling packet producer-3 from the queue.
Processing packet producer-3.
Consuming packet producer-3.
Producing packet producer-6.
Pushing packet producer-6 into the queue.
Pulling packet producer-4 from the queue.
Processing packet producer-4.
Consuming packet producer-4.
Producing packet producer-7.
Pushing packet producer-7 into the queue.
Producing packet producer-8.
Pushing packet producer-8 into the queue.
Pulling packet producer-5 from the queue.
Processing packet producer-5.
Consuming packet producer-5.
Pulling packet producer-6 from the queue.
Processing packet producer-6.
Consuming packet producer-6.
