%description:

TODO

%file: test.ned

import inet.queueing.shaper.TokenBucket;
import inet.queueing.sink.PassivePacketSink;
import inet.queueing.source.ActivePacketSource;
import inet.queueing.tokengenerator.TimeBasedTokenGenerator;

network TestTokenBucket
{
    submodules:
        producer: ActivePacketSource {
            @display("p=100,100");
        }
        bucket: TokenBucket {
            @display("p=200,100");
        }
        consumer: PassivePacketSink {
            @display("p=300,100");
        }
        tokenGenerator: TimeBasedTokenGenerator {
            @display("p=100,200");
        }
    connections allowunconnected:
        producer.out --> bucket.in;
        bucket.out --> consumer.in;
}

%inifile: omnetpp.ini

[General]
network = TestTokenBucket
sim-time-limit = 10s
cmdenv-event-banners = false
cmdenv-log-prefix = "At %ts %N: "
*.producer.packetLength = 1B
*.producer.productionInterval = uniform(0s, 2s)
*.producer.initialProductionOffset = -1s
*.bucket.server.maxNumTokens = 10
*.tokenGenerator.storageModule = "^.bucket.server"
*.tokenGenerator.generationInterval = uniform(0s, 2s)

%# remove formatting
%subst: /\x1B\[[0-9;]*m//

%subst: /\nRunning simulation\.\.\.\n//

%contains-regex: stdout
At 0s producer: Producing packet, .*?producer-0.*?
At 0s queue: Enqueuing packet, .*?producer-0.*?
At 1.097627004609s producer: Producing packet, .*?producer-1.*?
At 1.097627004609s queue: Enqueuing packet, .*?producer-1.*?
At 1.185689232778s queue: Dequeuing packet, .*?producer-0.*?
At 1.185689232778s server: Processing packet, .*?producer-0.*?
At 1.185689232778s consumer: Consuming packet, .*?producer-0.*?
At 2.528005734552s producer: Producing packet, .*?producer-2.*?
At 2.528005734552s queue: Enqueuing packet, .*?producer-2.*?
At 2.874220720958s queue: Dequeuing packet, .*?producer-1.*?
At 2.874220720958s server: Processing packet, .*?producer-1.*?
At 2.874220720958s consumer: Consuming packet, .*?producer-1.*?
At 3.733532475308s producer: Producing packet, .*?producer-3.*?
At 3.733532475308s queue: Enqueuing packet, .*?producer-3.*?
At 4.590111960657s queue: Dequeuing packet, .*?producer-2.*?
At 4.590111960657s server: Processing packet, .*?producer-2.*?
At 4.590111960657s consumer: Consuming packet, .*?producer-2.*?
At 4.823298830074s producer: Producing packet, .*?producer-4.*?
At 4.823298830074s queue: Enqueuing packet, .*?producer-4.*?
At 5.670608423651s producer: Producing packet, .*?producer-5.*?
At 5.670608423651s queue: Enqueuing packet, .*?producer-5.*?
At 6.284615435172s queue: Dequeuing packet, .*?producer-3.*?
At 6.284615435172s server: Processing packet, .*?producer-3.*?
At 6.284615435172s consumer: Consuming packet, .*?producer-3.*?
At 6.917735816446s producer: Producing packet, .*?producer-6.*?
At 6.917735816446s queue: Enqueuing packet, .*?producer-6.*?
At 7.576403665356s queue: Dequeuing packet, .*?producer-4.*?
At 7.576403665356s server: Processing packet, .*?producer-4.*?
At 7.576403665356s consumer: Consuming packet, .*?producer-4.*?
At 7.686499232893s producer: Producing packet, .*?producer-7.*?
At 7.686499232893s queue: Enqueuing packet, .*?producer-7.*?
At 8.281568443404s producer: Producing packet, .*?producer-8.*?
At 8.281568443404s queue: Enqueuing packet, .*?producer-8.*?
At 8.45157808531s queue: Dequeuing packet, .*?producer-5.*?
At 8.45157808531s server: Processing packet, .*?producer-5.*?
At 8.45157808531s consumer: Consuming packet, .*?producer-5.*?
At 8.565004036761s queue: Dequeuing packet, .*?producer-6.*?
At 8.565004036761s server: Processing packet, .*?producer-6.*?
At 8.565004036761s consumer: Consuming packet, .*?producer-6.*?

<!> Simulation time limit reached -- at t=10s
