%description:

Test for basic DHCP lifecycle handling.

%inifile: omnetpp.ini

[General]
network = Test
ned-path = .;../../../../src;../../lib
cmdenv-express-mode = false
sim-time-limit = 1000s
record-eventlog = true

#omnetpp 5.0 - 5.1 compatibility:
eventlog-file = "${resultdir}/${configname}-${runnumber}.elog"
output-scalar-file = "${resultdir}/${configname}-${runnumber}.sca"
output-vector-file = "${resultdir}/${configname}-${runnumber}.vec"
snapshot-file = "${resultdir}/${configname}-${runnumber}.sna"

**.hasStatus = true
**.scenarioManager.script = xmldoc("scenario.xml")

**.numApps = 1

**.client.app[0].typename = "DhcpClient"
**.client.app[0].interface = "eth0"

**.server.app[0].typename = "DhcpServer"
**.server.app[0].subnetMask = "255.255.255.0"
**.server.app[0].numReservedAddresses = 100
**.server.app[0].maxNumClients = 100
**.server.app[0].gateway = "192.168.1.1"
**.server.app[0].dns = ""
**.server.app[0].leaseTime = 100s
**.server.app[0].interface = "eth0"

%file: test.ned

import inet.test.moduletest.lib.*;
import inet.node.ethernet.Eth10M;
import inet.node.inet.StandardHost;
import inet.networklayer.configurator.ipv4.Ipv4NetworkConfigurator;
import inet.common.scenario.ScenarioManager;

network Test
{
    submodules:
        scenarioManager: ScenarioManager;
        configurator: Ipv4NetworkConfigurator {
            parameters:
                config = xml("<config><interface hosts='server' address='192.168.1.1' netmask='255.255.255.0'/></config>");
        }
        client: StandardHost;
        server: StandardHost;
    connections:
        client.ethg++ <--> Eth10M <--> server.ethg++;
}

%file: scenario.xml

<scenario>
    <at t="1.0">
        <shutdown module="client"/>
    </at>
    <at t="2.0">
        <startup module="client"/>
    </at>
    <at t="3.0">
        <shutdown module="server"/>
    </at>
    <at t="4.0">
        <startup module="server"/>
    </at> -->
</scenario>

%contains-regex: stdout
.*
The requested IP 192\.168\.1\.100/255\.255\.255\.0 is available. Assigning it to client.
.*
Test.client shutting down
.*
Test.client shut down
.*
Test.client starting up
.*
Test.client started
.*
The requested IP 192\.168\.1\.100/255\.255\.255\.0 is available. Assigning it to client.
.*
Test.server shutting down
.*
Test.server shut down
.*
Test.server starting up
.*
Test.server started
.*
The requested IP 192\.168\.1\.100/255\.255\.255\.0 is available. Assigning it to client.
.*
%#--------------------------------------------------------------------------------------------------------------
%not-contains: stdout
undisposed object:
%not-contains: stdout
-- check module destructor
%#--------------------------------------------------------------------------------------------------------------
