%description:
Testing DHCP protocol
%#--------------------------------------------------------------------------------------------------------------
%file: test.ned

import inet.test.moduletest.lib.*;
import inet.networklayer.configurator.ipv4.Ipv4NetworkConfigurator;
import inet.node.ethernet.EthernetSwitch;
import inet.node.inet.StandardHost;
import inet.common.misc.ThruputMeteringChannel;

network DhcpExample
{
    parameters:
        int numHosts;
    types:
        channel ethernetline extends ThruputMeteringChannel
        {
            delay = 0.1us;
            datarate = 10Mbps;
            thruputDisplayFormat = "u";
        }
    submodules:
        srv: StandardHost;
        switch: EthernetSwitch {
            parameters:
                @display("p=186,250");
        }
        cli[numHosts]: StandardHost;
        configurator: Ipv4NetworkConfigurator {
            parameters:
                config = xml("<config><interface hosts='srv' address='192.168.1.1' netmask='255.255.255.0' /></config>");
        }
    connections:
        srv.ethg++ <--> ethernetline <--> switch.ethg++;
        for i=0..numHosts-1 {
            cli[i].ethg++ <--> ethernetline <--> switch.ethg++;
        }
}

%#--------------------------------------------------------------------------------------------------------------
%inifile: omnetpp.ini

[General]
ned-path = .;../../../../src;../../lib
cmdenv-express-mode = false
sim-time-limit = 1000s
record-eventlog = true

#omnetpp 5.0 - 5.1 compatibility:
eventlog-file = "${resultdir}/${configname}-${runnumber}.elog"
output-scalar-file = "${resultdir}/${configname}-${runnumber}.sca"
output-vector-file = "${resultdir}/${configname}-${runnumber}.vec"
snapshot-file = "${resultdir}/${configname}-${runnumber}.sna"

network = DhcpExample

*.numHosts = 10

**.cli[*].numApps = 1
**.srv.numApps = 1

**.cli[*].app[0].typename = "DhcpClient"
**.cli[*].app[0].interface="eth0"   # interface toward dhcp server

**.srv.app[0].typename = "DhcpServer"
**.srv.app[0].numReservedAddresses = 100    # ip to start to lease
**.srv.app[0].maxNumClients = 100     # number of ip to lease
**.srv.app[0].dns = ""         # dns to assign
**.srv.app[0].leaseTime = 1000s     # lease time in seconds
**.srv.app[0].interface="eth0"   # interface to listen
%#--------------------------------------------------------------------------------------------------------------
%#--------------------------------------------------------------------------------------------------------------
%contains-regex: stdout
.*
The requested IP 192\.168\.1\.100/255\.255\.255\.0 is available. Assigning it to cli\[0\].
.*
The requested IP 192\.168\.1\.101/255\.255\.255\.0 is available. Assigning it to cli\[1\].
.*
The requested IP 192\.168\.1\.102/255\.255\.255\.0 is available. Assigning it to cli\[2\].
.*
The requested IP 192\.168\.1\.103/255\.255\.255\.0 is available. Assigning it to cli\[3\].
.*
The requested IP 192\.168\.1\.104/255\.255\.255\.0 is available. Assigning it to cli\[4\].
.*
The requested IP 192\.168\.1\.105/255\.255\.255\.0 is available. Assigning it to cli\[5\].
.*
The requested IP 192\.168\.1\.106/255\.255\.255\.0 is available. Assigning it to cli\[6\].
.*
The requested IP 192\.168\.1\.107/255\.255\.255\.0 is available. Assigning it to cli\[7\].
.*
The requested IP 192\.168\.1\.108/255\.255\.255\.0 is available. Assigning it to cli\[8\].
.*
The requested IP 192\.168\.1\.109/255\.255\.255\.0 is available. Assigning it to cli\[9\].
.*
%#--------------------------------------------------------------------------------------------------------------
%postrun-command: grep "undisposed object:" test.out > test_undisposed.out || true
%not-contains: test_undisposed.out
undisposed object: (
%#--------------------------------------------------------------------------------------------------------------
