%description:
This test is similar to DHCP_lifecycle_2.test but server shutting down with
server.status.initialStatus = "DOWN" parameter not via lifecycle events.
It is intended to test UDP internals in the DhcpClient for e.g. UDP bind won't
be invoked while the server is down.

%inifile: omnetpp.ini
[General]
network = LifecycleTest
ned-path = .;../../../../src;../../lib
cmdenv-express-mode = false
cmdenv-log-prefix = "[%t %M] "
sim-time-limit = 300s

#omnetpp 5.0 - 5.1 compatibility:
eventlog-file = "${resultdir}/${configname}-${runnumber}.elog"
output-scalar-file = "${resultdir}/${configname}-${runnumber}.sca"
output-vector-file = "${resultdir}/${configname}-${runnumber}.vec"
snapshot-file = "${resultdir}/${configname}-${runnumber}.sna"

**.hasStatus = true

**.scenarioManager.script = xmldoc("scenario.xml")
**.numApps = 1
**.client.app[0].typename = "DhcpClient"
**.server.app[0].typename = "DhcpServer"
**.server.status.initialStatus = "DOWN"

**.server.app[0].numReservedAddresses = 100
**.server.app[0].maxNumClients = 100
**.server.app[0].dns = ""
**.server.app[0].leaseTime = 150s

%file: test.ned

import inet.test.moduletest.lib.*;
import inet.node.ethernet.Eth10M;
import inet.node.inet.StandardHost;
import inet.networklayer.configurator.ipv4.Ipv4NetworkConfigurator;
import inet.common.scenario.ScenarioManager;

network LifecycleTest
{
    submodules:
        scenarioManager: ScenarioManager {
            @display("p=73,59");
        }
        configurator: Ipv4NetworkConfigurator {
            parameters:
                config = xml("<config><interface hosts='server' address='192.168.1.1' netmask='255.255.255.0'/></config>");
                @display("p=73,116");
        }
        client: StandardHost {
            @display("p=205,124");
        }
        server: StandardHost {
            @display("p=553,124");
        }
    connections:
        client.ethg++ <--> Eth10M <--> server.ethg++;
}

%file: scenario.xml

<scenario>
    <at t="190.0">
        <startup module="server"/>
    </at>
</scenario>

%# With RFC 2131 §4.1 exponential-backoff retransmission, the client emits
%# multiple retransmits while the server is down (instead of a single 60s
%# WAIT_OFFER timeout that restarts the whole DORA). Once the server comes
%# up at t=190s, the client's next retransmit gets a reply and it binds.
%# Timestamps are deterministic given the default seed.
%contains: stdout
[4.185689232778 LifecycleTest.client.app[0]] No DHCPOFFER yet; retransmitting DHCPDISCOVER (attempt 1, next wait ~8s).

%contains: stdout
[12.616067962721 LifecycleTest.client.app[0]] No DHCPOFFER yet; retransmitting DHCPDISCOVER (attempt 2, next wait ~16s).

%contains: stdout
[251.076564138874 LifecycleTest.client.app[0]] The requested IP 192.168.1.100/255.255.255.0 is available. Assigning it to client.

%#--------------------------------------------------------------------------------------------------------------
%postrun-command: grep "undisposed object:" test.out > test_undisposed.out || true
%not-contains: test_undisposed.out
undisposed object: (
%#--------------------------------------------------------------------------------------------------------------
