%description:
In this test the server shuts down immediately after (t = 0.0s) the starting and reboots
at t = 190s. Client acts according to its default behavior and starts sending DHCPDISCOVER
messages via UDP broadcasts.
As the client got no responses within its default timeout (60s) it periodically retransmits
the DHCPDISCOVER message.
In this scenario, server reboots at 190s so client has to retransmit DHCPDISCOVER four times
before its first success.

%inifile: omnetpp.ini
[General]
network = LifecycleTest
ned-path = .;../../../../src;../../lib
cmdenv-express-mode = false
sim-time-limit = 300s
record-eventlog = true

#omnetpp 5.0 - 5.1 compatibility:
eventlog-file = "${resultdir}/${configname}-${runnumber}.elog"
output-scalar-file = "${resultdir}/${configname}-${runnumber}.sca"
output-vector-file = "${resultdir}/${configname}-${runnumber}.vec"
snapshot-file = "${resultdir}/${configname}-${runnumber}.sna"

**.hasStatus = true
**.scenarioManager.script = xmldoc("scenario.xml")
**.numApps = 1
**.client.app[0].typename = "DhcpClient"
#**.client.app[0].log-level = detail

**.server.app[0].typename = "DhcpServer"
**.server.app[0].numReservedAddresses = 100
**.server.app[0].maxNumClients = 100
**.server.app[0].dns = ""
**.server.app[0].leaseTime = 150s

%file: test.ned

import inet.test.moduletest.lib.*;
import inet.node.ethernet.Eth10M;
import inet.node.inet.StandardHost;
import inet.networklayer.configurator.ipv4.Ipv4NetworkConfigurator;
import inet.common.scenario.ScenarioManager;

network LifecycleTest
{
    submodules:
        scenarioManager: ScenarioManager {
            @display("p=73,59");
        }
        configurator: Ipv4NetworkConfigurator {
            parameters:
                config = xml("<config><interface hosts='server' address='192.168.1.1' netmask='255.255.255.0'/></config>");
                @display("p=73,116");
        }
        client: StandardHost {
            @display("p=205,124");
        }
        server: StandardHost {
            @display("p=553,124");
        }
    connections:
        client.ethg++ <--> Eth10M <--> server.ethg++;
}

%file: scenario.xml

<scenario>
    <at t="0.0">
        <shutdown module="server"/>
    </at>
    <at t="190.0">
        <startup module="server"/>
    </at>
</scenario>

%contains-regex: stdout
.*
LifecycleTest.server shutting down
.*
Sending DHCPDISCOVER.
.*
(DETAIL: )?No DHCP offer received within timeout. Restarting.
.*
Sending DHCPDISCOVER.
.*
(DETAIL: )?No DHCP offer received within timeout. Restarting.
.*
Sending DHCPDISCOVER.
.*
(DETAIL: )?No DHCP offer received within timeout. Restarting.
.*
LifecycleTest.server started
.*
Sending DHCPDISCOVER.
.*
DHCPDISCOVER arrived. Handling it.
.*
The requested IP 192\.168\.1\.100/255\.255\.255\.0 is available. Assigning it to client.
.*
%#--------------------------------------------------------------------------------------------------------------
%postrun-command: grep "undisposed object:" test.out > test_undisposed.out || true
%not-contains: test_undisposed.out
undisposed object: (
%#--------------------------------------------------------------------------------------------------------------
