%description:
Simple test for TokenBucketMeter.

This file implements the test case described in
  Sanjay Ramroop: Performance evaluation of DiffServ networks using the ns-3 simulator


%file: TestNetwork.ned

import inet.test.moduletest.lib.*;
import inet.networklayer.diffserv.TokenBucketMeter;

network TestNetwork
{
  parameters:
    *.interfaceTableModule = "";

  submodules:
    app: MeterTestApp { colors = "Green Red"; }
    meter: TokenBucketMeter;

  connections allowunconnected:
    app.out --> meter.in;
    meter.greenOut --> app.in++;
    meter.redOut --> app.in++;
}

%inifile: omnetpp.ini
ned-path = .;../../../../src;../../lib
sim-time-limit=100s
cmdenv-express-mode = true

#omnetpp 5.0 - 5.1 compatibility:
eventlog-file = "${resultdir}/${configname}-${runnumber}.elog"
output-scalar-file = "${resultdir}/${configname}-${runnumber}.sca"
output-vector-file = "${resultdir}/${configname}-${runnumber}.vec"
snapshot-file = "${resultdir}/${configname}-${runnumber}.sna"

network = TestNetwork

**.app.numPackets = 10
**.app.iaTime = 0.008192s
**.app.packetSize = 1052B # 20 + 8 + 1024
**.app.resultFile = "result.txt"

**.meter.cir = "500kbps"
**.meter.cbs = 2000B

%contains: result.txt
Packet      Conformance
packet-1    Green
packet-2    Green
packet-3    Red
packet-4    Green
packet-5    Red
packet-6    Green
packet-7    Red
packet-8    Green
packet-9    Red
packet-10   Green
%#--------------------------------------------------------------------------------------------------------------
%not-contains: stdout
undisposed object:
%not-contains: stdout
-- check module destructor
%#--------------------------------------------------------------------------------------------------------------
