%description:

Carrier sense test for Ieee80211 in range concurrent and synchronized mutual transmission.

%file: test.ned

import inet.networklayer.configurator.ipv4.Ipv4NetworkConfigurator;
import inet.node.inet.AdhocHost;
import inet.physicallayer.ieee80211.packetlevel.Ieee80211ScalarRadioMedium;

network Test
{
    submodules:
        radioMedium: Ieee80211ScalarRadioMedium;
        configurator: Ipv4NetworkConfigurator;
        host1: AdhocHost;
        host2: AdhocHost;
}

%inifile: omnetpp.ini

[General]
network = Test
sim-time-limit = 100us
record-eventlog = true
ned-path = .;../../../../src

#omnetpp 5.0 - 5.1 compatibility:
eventlog-file = "${resultdir}/${configname}-${runnumber}.elog"
output-scalar-file = "${resultdir}/${configname}-${runnumber}.sca"
output-vector-file = "${resultdir}/${configname}-${runnumber}.vec"
snapshot-file = "${resultdir}/${configname}-${runnumber}.sna"

**.arp.typename = "GlobalArp"

**.host*.mobility.typename = "StationaryMobility"
**.mobility.constraintAreaMinZ = 0m
**.mobility.constraintAreaMinX = 0m
**.mobility.constraintAreaMinY = 0m
**.mobility.constraintAreaMaxX = 1000m
**.mobility.constraintAreaMaxY = 1000m
**.mobility.constraintAreaMaxZ = 0m

# mac
**.contention.initialChannelBusy = false

# radio
**.radio.receiver.energyDetection = -100dBm

# ping app
*.host*.numApps = 1
*.host*.app[0].typename = "PingApp"
*.host*.app[0].count = 1
*.host*.app[0].printPing = true
*.host1.app[0].destAddr = "host2"
*.host2.app[0].destAddr = "host1"

**.mobility.initFromDisplayString = false
**.mobility.initialY = 500m
**.mobility.initialZ = 0m

**.host1.mobility.initialX = 200m
**.host2.mobility.initialX = 800m
*.host*.app[0].startTime = 0s

%#--------------------------------------------------------------------------------------------------------------
%# remove colorizing
%subst: /\x1B\[[0-9;]*m//
%#--------------------------------------------------------------------------------------------------------------
%contains: results/General-0.elog
ignoring
%#--------------------------------------------------------------------------------------------------------------
%not-contains: results/General-0.elog
attempting
%#--------------------------------------------------------------------------------------------------------------
%not-contains: stdout
undisposed object:
%not-contains: stdout
-- check module destructor
%#--------------------------------------------------------------------------------------------------------------
