%description:

Test Rstp treebuilding

%file: test.ned

import inet.test.moduletest.lib.*;
import inet.node.ethernet.Eth1G;
import inet.node.ethernet.EthernetHost;
import inet.node.ethernet.EthernetSwitch;
import inet.common.scenario.ScenarioManager;
import inet.linklayer.configurator.L2NetworkConfigurator;
import inet.linklayer.ieee8021d.tester.StpTester;

network LargeNet
{
    submodules:
        stpTester: StpTester;
        scenarioManager: ScenarioManager;
        l2NetworkConfigurator: L2NetworkConfigurator;

        switch1: EthernetSwitch;
        switch2: EthernetSwitch;
        switch3: EthernetSwitch;
        switch4: EthernetSwitch;
        switch5: EthernetSwitch;
        switch6: EthernetSwitch;
        switch7: EthernetSwitch;
        switch8: EthernetSwitch;
        switch9: EthernetSwitch;
        switch10: EthernetSwitch;
        switch11: EthernetSwitch;

        host1: EthernetHost;
        host2: EthernetHost;
        host3: EthernetHost;
        host4: EthernetHost;
        host5: EthernetHost;
        host6: EthernetHost;

    connections:
        switch1.ethg++ <--> Eth1G <--> switch4.ethg++;
        switch1.ethg++ <--> Eth1G <--> switch3.ethg++;
        switch2.ethg++ <--> Eth1G <--> switch4.ethg++;
        switch2.ethg++ <--> Eth1G <--> switch6.ethg++;
        switch2.ethg++ <--> Eth1G <--> switch7.ethg++;
        switch3.ethg++ <--> Eth1G <--> switch7.ethg++;
        switch4.ethg++ <--> Eth1G <--> switch6.ethg++;
        switch4.ethg++ <--> Eth1G <--> switch7.ethg++;
        switch5.ethg++ <--> Eth1G <--> switch7.ethg++;
        switch11.ethg++ <--> Eth1G <--> switch9.ethg++;
        switch11.ethg++ <--> Eth1G <--> switch10.ethg++;
        switch11.ethg++ <--> Eth1G <--> switch5.ethg++;
        switch9.ethg++ <--> Eth1G <--> switch10.ethg++;
        switch8.ethg++ <--> Eth1G <--> switch9.ethg++;
        switch8.ethg++ <--> Eth1G <--> switch11.ethg++;
        switch8.ethg++ <--> Eth1G <--> switch5.ethg++;
        switch8.ethg++ <--> Eth1G <--> switch2.ethg++;
        switch3.ethg++ <--> Eth1G <--> host3.ethg;
        switch5.ethg++ <--> Eth1G <--> host2.ethg;
        switch6.ethg++ <--> Eth1G <--> host1.ethg;
        host5.ethg <--> Eth1G <--> switch9.ethg++;
        host4.ethg <--> Eth1G <--> switch10.ethg++;
        host6.ethg <--> Eth1G <--> switch8.ethg++;
}

%inifile: omnetpp.ini

[General]
sim-time-limit = 50s
cmdenv-express-mode = false
ned-path = .;../../../../src;../../lib

#omnetpp 5.0 - 5.1 compatibility:
eventlog-file = "${resultdir}/${configname}-${runnumber}.elog"
output-scalar-file = "${resultdir}/${configname}-${runnumber}.sca"
output-vector-file = "${resultdir}/${configname}-${runnumber}.vec"
snapshot-file = "${resultdir}/${configname}-${runnumber}.sna"

**.vector-recording = false
**.agingTime = 1s
network = LargeNet

**.visualize = true

**.switch*.eth[*].encap.typename = "EthernetEncapsulation"

**.switch1.**.address="AAAAAA000001"
**.switch2.**.address="AAAAAA000002"
**.switch3.**.address="AAAAAA000003"
**.switch4.**.address="AAAAAA000004"
**.switch5.**.address="AAAAAA000005"
**.switch6.**.address="AAAAAA000006"
**.switch7.**.address="AAAAAA000007"
**.switch8.**.address="AAAAAA000008"
**.switch9.**.address="AAAAAA000009"
**.switch10.**.address="AAAAAA00000A"
**.switch11.**.address="AAAAAA00000B"
**.host2.cli.destAddress = "LargeNet.host1"
**.host3.cli.destAddress = "LargeNet.host1"
**.host4.cli.destAddress = "LargeNet.host6"
**.host5.cli.destAddress = "LargeNet.host3"
**.host6.cli.destAddress = "LargeNet.host3"
**.host*.cli.startTime = 10ms

**.hasStp = true
**.spanningTreeProtocol = "Rstp"

%contains-regex: stdout

The network topology is a tree topology

%#--------------------------------------------------------------------------------------------------------------
%postrun-command: grep "undisposed object:" test.out > test_undisposed.out || true
%not-contains: test_undisposed.out
undisposed object: (
%#--------------------------------------------------------------------------------------------------------------
