%description:

Checks that a router sends general queries.

%#--------------------------------------------------------------------------------------------------------------

%inifile: omnetpp.ini
[General]
ned-path = .;../../../../src;../../lib
sim-time-limit=300s
cmdenv-express-mode = false
#cmdenv-log-prefix = "%t %N: "

#omnetpp 5.0 - 5.1 compatibility:
eventlog-file = "${resultdir}/${configname}-${runnumber}.elog"
output-scalar-file = "${resultdir}/${configname}-${runnumber}.sca"
output-vector-file = "${resultdir}/${configname}-${runnumber}.vec"
snapshot-file = "${resultdir}/${configname}-${runnumber}.sna"

network = inet.test.moduletest.lib.TestIGMPNetwork
**.igmp.typename = "Igmpv3"
**.IPForward = true
**.multicastForwarding = true

**.scenarioManager.script = xml("<scenario/>")

%#--------------------------------------------------------------------------------------------------------------

%#
%# Check that General Queries are sent.
%#
%# queryInterval = 125s
%# startupQueryInterval = queryInterval / 4
%#
%postrun-command: grep "IGMPTester: Received" test.out > received.out || true
%contains-regex: received.out
IGMPTester: Received: inet::Igmpv3Query<group=<unspec>, sourceList=\(\),.*>.
IGMPTester: Received: inet::Igmpv3Query<group=<unspec>, sourceList=\(\),.*>.
IGMPTester: Received: inet::Igmpv3Query<group=<unspec>, sourceList=\(\),.*>.
IGMPTester: Received: inet::Igmpv3Query<group=<unspec>, sourceList=\(\),.*>.

%#--------------------------------------------------------------------------------------------------------------
%not-contains: stdout
undisposed object:
%not-contains: stdout
-- check module destructor
%#--------------------------------------------------------------------------------------------------------------
