%description:

Tests Ipv4NetworkConfigurator for a mixed wired and wireless LAN.

%file: test.ned

import inet.test.moduletest.lib.*;
import inet.networklayer.configurator.ipv4.Ipv4NetworkConfigurator;
import inet.node.ethernet.EtherSwitch;
import inet.node.ethernet.Eth10M;
import inet.node.inet.Router;
import inet.node.inet.StandardHost;
import inet.node.inet.WirelessHost;
import inet.node.wireless.AccessPoint;
import inet.physicallayer.ieee80211.packetlevel.Ieee80211ScalarRadioMedium;

network Test
{
    parameters:
        int numHosts;
    submodules:
        configurator: Ipv4NetworkConfigurator {
            parameters:
                dumpAddresses = true;
        }
        radioMedium: Ieee80211ScalarRadioMedium;
        server: StandardHost;
        router: Router;
        switch: EtherSwitch;
        accessPoint: AccessPoint;
        mobile[numHosts]: WirelessHost;
        client[numHosts]: StandardHost;
    connections:
        server.ethg++ <--> Eth10M <--> router.ethg++;
        router.ethg++ <--> Eth10M <--> switch.ethg++;
        switch.ethg++ <--> Eth10M <--> accessPoint.ethg++;
        for i=0..numHosts-1 {
            client[i].ethg++ <--> Eth10M <--> switch.ethg++;
        }
}

%inifile: omnetpp.ini

[General]
network = Test
cmdenv-express-mode = false
ned-path = .;../../../../src;../../lib
sim-time-limit = 1s

#omnetpp 5.0 - 5.1 compatibility:
eventlog-file = "${resultdir}/${configname}-${runnumber}.elog"
output-scalar-file = "${resultdir}/${configname}-${runnumber}.sca"
output-vector-file = "${resultdir}/${configname}-${runnumber}.vec"
snapshot-file = "${resultdir}/${configname}-${runnumber}.sna"

*.numHosts = 3

**.constraintAreaMinX = 0m
**.constraintAreaMinY = 0m
**.constraintAreaMinZ = 0m
**.constraintAreaMaxX = 1000m
**.constraintAreaMaxY = 1000m
**.constraintAreaMaxZ = 0m

%contains-regex: stdout
Link 0
    server / eth0 ID:\d+ MTU:1500 UP BROADCAST CARRIER MULTICAST macAddr:0A-AA-00-00-00-[0-9A-F]{2} Ipv4:\{inet_addr:10.0.0.1/30.*\}
    router / eth0 ID:\d+ MTU:1500 UP BROADCAST CARRIER MULTICAST macAddr:0A-AA-00-00-00-[0-9A-F]{2} Ipv4:\{inet_addr:10.0.0.2/30.*\}
Link 1
    router / eth1 ID:\d+ MTU:1500 UP BROADCAST CARRIER MULTICAST macAddr:0A-AA-00-00-00-[0-9A-F]{2} Ipv4:\{inet_addr:10.0.0.17/28.*\}
    mobile\[0\] / wlan0 ID:\d+ MTU:2304 UP BROADCAST CARRIER MULTICAST macAddr:0A-AA-00-00-00-[0-9A-F]{2} Ipv4:\{inet_addr:10.0.0.18/28.*\}
    mobile\[1\] / wlan0 ID:\d+ MTU:2304 UP BROADCAST CARRIER MULTICAST macAddr:0A-AA-00-00-00-[0-9A-F]{2} Ipv4:\{inet_addr:10.0.0.19/28.*\}
    mobile\[2\] / wlan0 ID:\d+ MTU:2304 UP BROADCAST CARRIER MULTICAST macAddr:0A-AA-00-00-00-[0-9A-F]{2} Ipv4:\{inet_addr:10.0.0.20/28.*\}
    client\[0\] / eth0 ID:\d+ MTU:1500 UP BROADCAST CARRIER MULTICAST macAddr:0A-AA-00-00-00-[0-9A-F]{2} Ipv4:\{inet_addr:10.0.0.21/28.*\}
    client\[1\] / eth0 ID:\d+ MTU:1500 UP BROADCAST CARRIER MULTICAST macAddr:0A-AA-00-00-00-[0-9A-F]{2} Ipv4:\{inet_addr:10.0.0.22/28.*\}
    client\[2\] / eth0 ID:\d+ MTU:1500 UP BROADCAST CARRIER MULTICAST macAddr:0A-AA-00-00-00-[0-9A-F]{2} Ipv4:\{inet_addr:10.0.0.23/28.*\}

%#--------------------------------------------------------------------------------------------------------------
%not-contains: stdout
undisposed object:
%not-contains: stdout
-- check module destructor
%#--------------------------------------------------------------------------------------------------------------
