%description:

Tests Ipv4NetworkConfigurator for a wired LAN.
Topology:
   server <--> router <--> 3 switches in a triangle <--> clients

%file: test.ned

import inet.test.moduletest.lib.*;
import inet.networklayer.configurator.ipv4.Ipv4NetworkConfigurator;
import inet.node.ethernet.Eth10M;
import inet.node.ethernet.EtherSwitch;
import inet.node.inet.Router;
import inet.node.inet.StandardHost;

network Test
{
    parameters:
        int numHosts;
    submodules:
        configurator: Ipv4NetworkConfigurator {
            parameters:
                dumpAddresses = true;
        }
        switch1: EtherSwitch;
        switch2: EtherSwitch;
        switch3: EtherSwitch;
        server: StandardHost;
        router: Router;
        client[numHosts]: StandardHost;
    connections:
        server.ethg++ <--> Eth10M <--> router.ethg++;
        router.ethg++ <--> Eth10M <--> switch1.ethg++;
        switch1.ethg++ <--> Eth10M <--> switch2.ethg++;
        switch2.ethg++ <--> Eth10M <--> switch3.ethg++;
        switch3.ethg++ <--> Eth10M <--> switch1.ethg++;
        for i=0..numHosts-1 {
            client[i].ethg++ <--> Eth10M <--> switch3.ethg++;
        }
}

%inifile: omnetpp.ini

[General]
network = Test
cmdenv-express-mode = false
ned-path = .;../../../../src;../../lib
sim-time-limit = 1s

#omnetpp 5.0 - 5.1 compatibility:
eventlog-file = "${resultdir}/${configname}-${runnumber}.elog"
output-scalar-file = "${resultdir}/${configname}-${runnumber}.sca"
output-vector-file = "${resultdir}/${configname}-${runnumber}.vec"
snapshot-file = "${resultdir}/${configname}-${runnumber}.sna"

*.numHosts = 3

%contains-regex: stdout
Link 0
    server / eth0 ID:\d+ MTU:1500 UP BROADCAST CARRIER MULTICAST macAddr:0A-AA-00-00-00-[0-9A-F]{2} Ipv4:\{.*inet_addr:10.0.0.1/30.*}
    router / eth0 ID:\d+ MTU:1500 UP BROADCAST CARRIER MULTICAST macAddr:0A-AA-00-00-00-[0-9A-F]{2} Ipv4:\{.*inet_addr:10.0.0.2/30.*}
Link 1
    router / eth1 ID:\d+ MTU:1500 UP BROADCAST CARRIER MULTICAST macAddr:0A-AA-00-00-00-[0-9A-F]{2} Ipv4:\{.*inet_addr:10.0.0.9/29.*}
    client\[0\] / eth0 ID:\d+ MTU:1500 UP BROADCAST CARRIER MULTICAST macAddr:0A-AA-00-00-00-[0-9A-F]{2} Ipv4:\{.*inet_addr:10.0.0.10/29.*}
    client\[1\] / eth0 ID:\d+ MTU:1500 UP BROADCAST CARRIER MULTICAST macAddr:0A-AA-00-00-00-[0-9A-F]{2} Ipv4:\{.*inet_addr:10.0.0.11/29.*}
    client\[2\] / eth0 ID:\d+ MTU:1500 UP BROADCAST CARRIER MULTICAST macAddr:0A-AA-00-00-00-[0-9A-F]{2} Ipv4:\{.*inet_addr:10.0.0.12/29.*}


%#--------------------------------------------------------------------------------------------------------------
%not-contains: stdout
undisposed object:
%not-contains: stdout
-- check module destructor
%#--------------------------------------------------------------------------------------------------------------
