%description:
Tests that the MTU option in Router Advertisements is processed correctly.

A router sends RAs containing an MTU option (default value 1280). The host
receives the RA and updates its LinkMTU from the option value.

%#--------------------------------------------------------------------------------------------------------------
%file: test.ned
import inet.networklayer.configurator.ipv6.Ipv6FlatNetworkConfigurator;
import inet.node.ipv6.Router6;
import inet.node.ipv6.StandardHost6;
import ned.DatarateChannel;

network MtuTestNetwork
{
    types:
        channel ethline extends DatarateChannel
        {
            delay = 0.1us;
            datarate = 10Mbps;
        }
    submodules:
        configurator: Ipv6FlatNetworkConfigurator;
        router: Router6;
        host: StandardHost6;
    connections:
        host.ethg++ <--> ethline <--> router.ethg++;
}
%#--------------------------------------------------------------------------------------------------------------
%inifile: omnetpp.ini
[General]
record-vector-results = false
ned-path = ../../../../src
network = MtuTestNetwork
sim-time-limit = 5s
cmdenv-express-mode = false
cmdenv-log-prefix = "%C: "

# Ethernet NIC configuration
**.eth[*].queue.typename = "EthernetQosQueue"
**.eth[*].queue.dataQueue.typename = "DropTailQueue"
**.eth[*].queue.dataQueue.packetCapacity = 10

%#--------------------------------------------------------------------------------------------------------------
%subst: /omnetpp:://
%#--------------------------------------------------------------------------------------------------------------
%contains: stdout
RA MTU option: setting link MTU to
%#--------------------------------------------------------------------------------------------------------------
%postrun-command: grep "undisposed object:" test.out > test_undisposed.out || true
%not-contains: test_undisposed.out
undisposed object: (
%#--------------------------------------------------------------------------------------------------------------
