%description:
Tests that a router sends ICMPv6 Destination Unreachable when it has no route
for the packet's destination.

NClientsEth example network is used (cli -- r1 -- r2 -- r3 -- srv).
The client sends a UDP datagram to a global address (2001:db8::1) that no
router has a route for. The first router (r1) sends back an ICMPv6
Destination Unreachable error.

%#--------------------------------------------------------------------------------------------------------------
%inifile: omnetpp.ini
[General]
ned-path = ../../../../examples;../../../../src
network = inet.examples.ipv6.nclients.NClientsEth
sim-time-limit = 15s
cmdenv-express-mode = false
cmdenv-log-prefix = "%C: "

#omnetpp 5.0 - 5.1 compatibility:
eventlog-file = "${resultdir}/${configname}-${runnumber}.elog"
output-scalar-file = "${resultdir}/${configname}-${runnumber}.sca"
output-vector-file = "${resultdir}/${configname}-${runnumber}.vec"
snapshot-file = "${resultdir}/${configname}-${runnumber}.sna"

# number of client computers
*.n = 1

# udp apps
**.cli[*].numApps = 1
**.cli[*].app[0].typename = "UdpBasicApp"
**.cli[*].app[0].destAddresses = "2001:db8::1"
**.cli[*].app[0].destPort = 1000
**.cli[*].app[0].messageLength = 64B

**.cli[*].app[0].startTime = 10s
**.cli[*].app[0].stopTime = 11s
**.cli[*].app[0].sendInterval = 10s

**.srv.numApps = 1
**.srv.app[0].typename = "UdpSink"
**.srv.app[0].localPort = 1000

# Ethernet NIC configuration
**.eth[*].queue.typename = "EthernetQosQueue"
**.eth[*].queue.dataQueue.typename = "DropTailQueue" # in routers
**.eth[*].queue.dataQueue.packetCapacity = 10  # in routers

%#--------------------------------------------------------------------------------------------------------------
%subst: /omnetpp:://
%#--------------------------------------------------------------------------------------------------------------
%contains: stdout
NClientsEth.r1.ipv6.ipv6: unroutable, sending ICMPv6_DESTINATION_UNREACHABLE
%#--------------------------------------------------------------------------------------------------------------
%postrun-command: grep "undisposed object:" test.out > test_undisposed.out || true
%not-contains: test_undisposed.out
undisposed object: (
%#--------------------------------------------------------------------------------------------------------------
