%description:

Test shutdown and startup operations on an IPv6 StandardHost6.
Verifies that Ipv6, Ipv6NeighbourDiscovery, and Icmpv6
modules handle lifecycle operations without errors or memory leaks.

%#--------------------------------------------------------------------------------------------------------------
%file: test.ned
import inet.networklayer.configurator.ipv6.Ipv6FlatNetworkConfigurator;
import inet.node.ipv6.Router6;
import inet.node.ipv6.StandardHost6;
import inet.common.scenario.ScenarioManager;
import ned.DatarateChannel;

network IPv6LifecycleTest
{
    types:
        channel ethline extends DatarateChannel
        {
            delay = 0.1us;
            datarate = 10Mbps;
        }
    submodules:
        scenarioManager: ScenarioManager;
        configurator: Ipv6FlatNetworkConfigurator;
        router: Router6;
        host: StandardHost6;
    connections:
        host.ethg++ <--> ethline <--> router.ethg++;
}
%#--------------------------------------------------------------------------------------------------------------
%inifile: omnetpp.ini
[General]
ned-path = ../../../../src
network = IPv6LifecycleTest
sim-time-limit = 20s
cmdenv-express-mode = false
cmdenv-log-prefix = "%C: "

#omnetpp 5.0 - 5.1 compatibility:
eventlog-file = "${resultdir}/${configname}-${runnumber}.elog"
output-scalar-file = "${resultdir}/${configname}-${runnumber}.sca"
output-vector-file = "${resultdir}/${configname}-${runnumber}.vec"
snapshot-file = "${resultdir}/${configname}-${runnumber}.sna"

**.hasStatus = true
**.scenarioManager.script = xmldoc("scenario.xml")

# Ethernet NIC configuration
**.eth[*].queue.typename = "EthernetQosQueue"
**.eth[*].queue.dataQueue.typename = "DropTailQueue"
**.eth[*].queue.dataQueue.packetCapacity = 10

%#--------------------------------------------------------------------------------------------------------------
%file: scenario.xml

<scenario>
    <at t="5.0">
        <shutdown module="host"/>
    </at>
    <at t="10.0">
        <startup module="host"/>
    </at>
    <at t="15.0">
        <shutdown module="host"/>
    </at>
</scenario>

%#--------------------------------------------------------------------------------------------------------------
%subst: /omnetpp:://
%#--------------------------------------------------------------------------------------------------------------
%contains: stdout
IPv6LifecycleTest.host shutting down
%contains: stdout
IPv6LifecycleTest.host shut down
%contains: stdout
IPv6LifecycleTest.host starting up
%contains: stdout
IPv6LifecycleTest.host started
%#--------------------------------------------------------------------------------------------------------------
%not-contains: stdout
<!> Error
%#--------------------------------------------------------------------------------------------------------------
%postrun-command: grep "undisposed object:" test.out > test_undisposed.out || true
%not-contains: test_undisposed.out
undisposed object: (
%#--------------------------------------------------------------------------------------------------------------
