%description:
Tests that Duplicate Address Detection (DAD) completes successfully.

A minimal network with a router and a host is used. Both nodes perform
DAD on their link-local addresses during initialization. The test
verifies that DAD completes and addresses are permanently assigned.

%#--------------------------------------------------------------------------------------------------------------
%file: test.ned
import inet.networklayer.configurator.ipv6.Ipv6FlatNetworkConfigurator;
import inet.node.ipv6.Router6;
import inet.node.ipv6.StandardHost6;
import ned.DatarateChannel;

network DadTestNetwork
{
    types:
        channel ethline extends DatarateChannel
        {
            delay = 0.1us;
            datarate = 10Mbps;
        }
    submodules:
        configurator: Ipv6FlatNetworkConfigurator;
        router: Router6;
        host: StandardHost6;
    connections:
        host.ethg++ <--> ethline <--> router.ethg++;
}
%#--------------------------------------------------------------------------------------------------------------
%inifile: omnetpp.ini
[General]
ned-path = ../../../../src
network = DadTestNetwork
sim-time-limit = 5s
cmdenv-express-mode = false
cmdenv-log-prefix = "%C: "

#omnetpp 5.0 - 5.1 compatibility:
eventlog-file = "${resultdir}/${configname}-${runnumber}.elog"
output-scalar-file = "${resultdir}/${configname}-${runnumber}.sca"
output-vector-file = "${resultdir}/${configname}-${runnumber}.vec"
snapshot-file = "${resultdir}/${configname}-${runnumber}.sna"

# Ethernet NIC configuration
**.eth[*].queue.typename = "EthernetQosQueue"
**.eth[*].queue.dataQueue.typename = "DropTailQueue"
**.eth[*].queue.dataQueue.packetCapacity = 10

%#--------------------------------------------------------------------------------------------------------------
%subst: /omnetpp:://
%#--------------------------------------------------------------------------------------------------------------
%contains: stdout
DadTestNetwork.host.ipv6.neighbourDiscovery: DAD completed for address fe80::
%#--------------------------------------------------------------------------------------------------------------
%postrun-command: grep "undisposed object:" test.out > test_undisposed.out || true
%not-contains: test_undisposed.out
undisposed object: (
%#--------------------------------------------------------------------------------------------------------------
