%description:
Tests that IPv6 multicast packets use the correct Ethernet multicast
MAC destination address (33:33:xx:xx:xx:xx) instead of the broadcast
address (FF:FF:FF:FF:FF:FF).

RFC 2464 Section 7: An IPv6 packet with a multicast destination address
DST, consisting of the sixteen octets DST[1] through DST[16], is
transmitted to the Ethernet multicast address whose first two octets are
the value 3333 hexadecimal and whose last four octets are the last four
octets of DST.

Topology: a single router and host on a shared Ethernet link.
The router sends Router Advertisements to ff02::1, which should map to
Ethernet multicast address 33:33:00:00:00:01.

%#--------------------------------------------------------------------------------------------------------------
%file: test.ned
import inet.networklayer.configurator.ipv6.Ipv6FlatNetworkConfigurator;
import inet.node.ethernet.EthernetSwitch;
import inet.node.ipv6.Router6;
import inet.node.ipv6.StandardHost6;
import ned.DatarateChannel;

network MulticastMacTestNetwork
{
    types:
        channel ethline extends DatarateChannel
        {
            delay = 0.1us;
            datarate = 10Mbps;
        }
    submodules:
        configurator: Ipv6FlatNetworkConfigurator;
        switch1: EthernetSwitch;
        R1: Router6;
        H1: StandardHost6;
    connections:
        H1.ethg++ <--> ethline <--> switch1.ethg++;
        R1.ethg++ <--> ethline <--> switch1.ethg++;
}
%#--------------------------------------------------------------------------------------------------------------
%inifile: omnetpp.ini
[General]
ned-path = ../../../../src
network = MulticastMacTestNetwork
sim-time-limit = 10s
cpu-time-limit = 5s
cmdenv-express-mode = false
cmdenv-log-prefix = "%C: "

#omnetpp 5.0 - 5.1 compatibility:
eventlog-file = "${resultdir}/${configname}-${runnumber}.elog"
output-scalar-file = "${resultdir}/${configname}-${runnumber}.sca"
output-vector-file = "${resultdir}/${configname}-${runnumber}.vec"
snapshot-file = "${resultdir}/${configname}-${runnumber}.sna"

# Ethernet NIC configuration
**.eth[*].queue.typename = "EthernetQosQueue"
**.eth[*].queue.dataQueue.typename = "DropTailQueue"
**.eth[*].queue.dataQueue.packetCapacity = 10

%#--------------------------------------------------------------------------------------------------------------
%subst: /omnetpp:://
%subst: /\x1B\[[0-9;]*m//
%#--------------------------------------------------------------------------------------------------------------
%contains: stdout
dest = 33-33-00-00-00-01
%#--------------------------------------------------------------------------------------------------------------
%not-contains: stdout
dest = FF-FF-FF-FF-FF-FF
%#--------------------------------------------------------------------------------------------------------------
%postrun-command: grep "undisposed object:" test.out > test_undisposed.out || true
%not-contains: test_undisposed.out
undisposed object: (
%#--------------------------------------------------------------------------------------------------------------
