%description:
Tests that a packet with hopLimit=1 gets dropped at the first router with
an ICMPv6 Time Exceeded error sent back to the sender.

NClientsEth example network is used (cli -- r1 -- r2 -- r3 -- srv).
The client sends a UDP datagram with hopLimit=1. At the first router (r1),
the hop limit is decremented to 0, triggering ICMPv6 TIME_EXCEEDED.
It is verified that the error is generated and delivered back to the
transport layer.

%#--------------------------------------------------------------------------------------------------------------
%inifile: omnetpp.ini
[General]
ned-path = ../../../../examples;../../../../src
network = inet.examples.ipv6.nclients.NClientsEth
sim-time-limit = 15s
cmdenv-express-mode = false
cmdenv-log-prefix = "%C: "

#omnetpp 5.0 - 5.1 compatibility:
eventlog-file = "${resultdir}/${configname}-${runnumber}.elog"
output-scalar-file = "${resultdir}/${configname}-${runnumber}.sca"
output-vector-file = "${resultdir}/${configname}-${runnumber}.vec"
snapshot-file = "${resultdir}/${configname}-${runnumber}.sna"

# number of client computers
*.n = 1

# udp apps
**.cli[*].numApps = 1
**.cli[*].app[0].typename = "UdpBasicApp"
**.cli[*].app[0].destAddresses = "srv"
**.cli[*].app[0].destPort = 1000
**.cli[*].app[0].messageLength = 64B
**.cli[*].app[0].timeToLive = 1

**.cli[*].app[0].startTime = 10s
**.cli[*].app[0].stopTime = 11s
**.cli[*].app[0].sendInterval = 10s

**.srv.numApps = 1
**.srv.app[0].typename = "UdpSink"
**.srv.app[0].localPort = 1000

# Ethernet NIC configuration
**.eth[*].queue.typename = "EthernetQosQueue"
**.eth[*].queue.dataQueue.typename = "DropTailQueue" # in routers
**.eth[*].queue.dataQueue.packetCapacity = 10  # in routers

%#--------------------------------------------------------------------------------------------------------------
%subst: /omnetpp:://
%#--------------------------------------------------------------------------------------------------------------
%contains: stdout
NClientsEth.r1.ipv6.ipv6: datagram hopLimit reached zero, sending ICMPv6_TIME_EXCEEDED
%#--------------------------------------------------------------------------------------------------------------
%contains: stdout
NClientsEth.cli[0].ipv6.ipv6: Forwarding ICMPv6 error indication to transport protocol udp
%#--------------------------------------------------------------------------------------------------------------
%postrun-command: grep "undisposed object:" test.out > test_undisposed.out || true
%not-contains: test_undisposed.out
undisposed object: (
%#--------------------------------------------------------------------------------------------------------------
