%description:
Regression test that LDP actually discovers peers, forms sessions, distributes
labels, and label-switches host traffic in examples/mpls/ldp (network LDPTEST).

This locks in the fix that made LDP functional (before it, no LDP Hello was ever
received because the receive socket did not join the all-routers multicast group
and had no callback, so no session ever formed and nothing was label-switched).

The assertions deliberately check evidence of LABEL SWITCHING and LDP-dependent
delivery, not just that packets arrive: in this network the LSRs have NO static
IP routes to the customer host prefixes (only router-to-router /32 routes, which
LDP needs for its control plane), so host-to-host traffic can ONLY be delivered
over LDP-established LSPs. With LDP broken, zero packets are delivered -- there is
no silent IP-routing fallback to hide a broken protocol.

%#--------------------------------------------------------------------------------------------------------------
%inifile: test.ini

[General]
ned-path = ../../../../examples;../../../../src
network = inet.examples.mpls.ldp.LDPTEST
sim-time-limit = 2s
total-stack = 64MiB
record-vector-results = false
cmdenv-express-mode = false
**.cmdenv-log-level = "info"
output-scalar-file = "${resultdir}/${configname}-#${runnumber}.sca"

**.host1.numApps = 1
**.host1.app[0].typename = "UdpBasicApp"
**.host1.app[0].localPort = 100
**.host1.app[0].destPort = 100
**.host1.app[0].messageLength = 128 bytes
**.host1.app[0].sendInterval = 0.01s
**.host1.app[0].destAddresses = "host2"

**.host3.numApps = 1
**.host3.app[0].typename = "UdpBasicApp"
**.host3.app[0].localPort = 100
**.host3.app[0].destPort = 100
**.host3.app[0].messageLength = 128 bytes
**.host3.app[0].sendInterval = 0.01s
**.host3.app[0].destAddresses = "host4"

**.host{2..4}.numApps = 1
**.host{2..4}.app[0].typename = "UdpSink"
**.host{2..4}.app[0].localPort = 100

**.host1.ipv4.routingTable.routingFile = "../../../../examples/mpls/ldp/host1.rt"
**.host2.ipv4.routingTable.routingFile = "../../../../examples/mpls/ldp/host2.rt"
**.host3.ipv4.routingTable.routingFile = "../../../../examples/mpls/ldp/host3.rt"
**.host4.ipv4.routingTable.routingFile = "../../../../examples/mpls/ldp/host4.rt"

**.LSR1.ipv4.routingTable.routingFile = "../../../../examples/mpls/ldp/LSR1.rt"
**.LSR2.ipv4.routingTable.routingFile = "../../../../examples/mpls/ldp/LSR2.rt"
**.LSR3.ipv4.routingTable.routingFile = "../../../../examples/mpls/ldp/LSR3.rt"
**.LSR4.ipv4.routingTable.routingFile = "../../../../examples/mpls/ldp/LSR4.rt"
**.LSR5.ipv4.routingTable.routingFile = "../../../../examples/mpls/ldp/LSR5.rt"

**.ppp[*].queue.typename = "DropTailQueue"
**.ppp[*].queue.packetCapacity = 10

**.LSR*.holdTime = 6s
**.LSR*.helloInterval = 2s

**.scenarioManager.script = xml("<scenario/>")

%#--------------------------------------------------------------------------------------------------------------
%# an LDP session establishes over TCP
%contains: stdout
TCP connection established with peer
%#--------------------------------------------------------------------------------------------------------------
%# the data plane is label-switched: an MPLS label is pushed/swapped and forwarded
%contains: stdout
doStackOps: {PUSH
%#--------------------------------------------------------------------------------------------------------------
%# host traffic is actually delivered -- and since there is no IP route to the host
%# prefixes, this can only happen over an LDP-established LSP
%postrun-command: grep "packetReceived:count" results/General-#0.sca | awk '$NF > 0 { print "DELIVERED", $0 }' > delivered.out
%contains: delivered.out
DELIVERED
%#--------------------------------------------------------------------------------------------------------------
%postrun-command: grep "undisposed object:" test.out > test_undisposed.out || true
%not-contains: test_undisposed.out
undisposed object: (
%#--------------------------------------------------------------------------------------------------------------
