%description:
Regression test for the LDP Initialization/KeepAlive session FSM (RFC 5036 Section
2.5.2-2.5.5), in examples/mpls/ldp (network LDPTEST): a clone of ldp_session_setup.test
that additionally asserts the 4-way handshake actually happens, in order, before any
label is distributed -- Init sent (active side) -> Init received (passive side) ->
KeepAlive -> session OPERATIONAL -> label mapping.

Falsification: this test FAILS against the parent commit (no Init/KeepAlive/FSM exists
there -- socketEstablished() calls updateFecList() directly on TCP connect, so none of
the "Init sent", "Init received", "KeepAlive", or "is now OPERATIONAL" lines are ever
produced). Verified by stashing this commit's source changes (keeping this .test file),
rebuilding the debug library, re-running (FAIL: none of the regex lines are found), then
restoring the changes and rebuilding again (PASS).

%#--------------------------------------------------------------------------------------------------------------
%inifile: test.ini

[General]
ned-path = ../../../../examples;../../../../src
network = inet.examples.mpls.ldp.LDPTEST
sim-time-limit = 2s
total-stack = 64MiB
record-vector-results = false
cmdenv-express-mode = false
cmdenv-event-banners = false
%# only the LDP modules log at info level: the ordering assertion below is a
%# multi-line regex match over the whole log, and keeping the log small avoids
%# both test.out bloat and pathological regex backtracking (see authoring-tests
%# skill: "Log-asserting tests" hygiene)
**.LSR*.ldp.cmdenv-log-level = info
**.LSR*.mpls.cmdenv-log-level = info
**.cmdenv-log-level = off
output-scalar-file = "${resultdir}/${configname}-#${runnumber}.sca"

**.host1.numApps = 1
**.host1.app[0].typename = "UdpBasicApp"
**.host1.app[0].localPort = 100
**.host1.app[0].destPort = 100
**.host1.app[0].messageLength = 128 bytes
**.host1.app[0].sendInterval = 0.01s
**.host1.app[0].destAddresses = "host2"

**.host3.numApps = 1
**.host3.app[0].typename = "UdpBasicApp"
**.host3.app[0].localPort = 100
**.host3.app[0].destPort = 100
**.host3.app[0].messageLength = 128 bytes
**.host3.app[0].sendInterval = 0.01s
**.host3.app[0].destAddresses = "host4"

**.host{2..4}.numApps = 1
**.host{2..4}.app[0].typename = "UdpSink"
**.host{2..4}.app[0].localPort = 100

**.host1.ipv4.routingTable.routingFile = "../../../../examples/mpls/ldp/host1.rt"
**.host2.ipv4.routingTable.routingFile = "../../../../examples/mpls/ldp/host2.rt"
**.host3.ipv4.routingTable.routingFile = "../../../../examples/mpls/ldp/host3.rt"
**.host4.ipv4.routingTable.routingFile = "../../../../examples/mpls/ldp/host4.rt"

**.LSR1.ipv4.routingTable.routingFile = "../../../../examples/mpls/ldp/LSR1.rt"
**.LSR2.ipv4.routingTable.routingFile = "../../../../examples/mpls/ldp/LSR2.rt"
**.LSR3.ipv4.routingTable.routingFile = "../../../../examples/mpls/ldp/LSR3.rt"
**.LSR4.ipv4.routingTable.routingFile = "../../../../examples/mpls/ldp/LSR4.rt"
**.LSR5.ipv4.routingTable.routingFile = "../../../../examples/mpls/ldp/LSR5.rt"

**.ppp[*].queue.typename = "DropTailQueue"
**.ppp[*].queue.packetCapacity = 10

**.LSR*.holdTime = 6s
**.LSR*.helloInterval = 2s

**.scenarioManager.script = xml("<scenario/>")

%#--------------------------------------------------------------------------------------------------------------
%# the 4-way handshake, in order: Init sent (active) -> Init received (passive) ->
%# KeepAlive -> session OPERATIONAL -> label distribution only afterwards
%contains-regex: stdout
Init sent to .*
.*
Init received from .*
.*
KeepAlive (sent to|received from) .*
.*
LDP session with .* is now OPERATIONAL
.*
Label mapping label=.* received for fec=.*
%#--------------------------------------------------------------------------------------------------------------
%# an LDP session still establishes over TCP (unchanged from ldp_session_setup.test)
%contains: stdout
TCP connection established with peer
%#--------------------------------------------------------------------------------------------------------------
%# the data plane is still label-switched: an MPLS label is pushed/swapped and forwarded
%contains: stdout
doStackOps: {PUSH
%#--------------------------------------------------------------------------------------------------------------
%# host traffic is actually delivered -- and since there is no IP route to the host
%# prefixes, this can only happen over an LDP-established LSP that completed the FSM
%postrun-command: grep "packetReceived:count" results/General-#0.sca | awk '$NF > 0 { print "DELIVERED", $0 }' > delivered.out
%contains: delivered.out
DELIVERED
%#--------------------------------------------------------------------------------------------------------------
%postrun-command: grep "undisposed object:" test.out > test_undisposed.out || true
%not-contains: test_undisposed.out
undisposed object: (
%#--------------------------------------------------------------------------------------------------------------
