%description:

Test shutdown and startup operations on AccessPoint.
Test startup operation on AccessPoint that is initially down.

%inifile: omnetpp.ini

[General]
network = Test
ned-path = .;../../../../src;../../lib
cmdenv-express-mode = false
record-eventlog = true
sim-time-limit = 3s

#omnetpp 5.0 - 5.1 compatibility:
eventlog-file = "${resultdir}/${configname}-${runnumber}.elog"
output-scalar-file = "${resultdir}/${configname}-${runnumber}.sca"
output-vector-file = "${resultdir}/${configname}-${runnumber}.vec"
snapshot-file = "${resultdir}/${configname}-${runnumber}.sna"

**.hasStatus = true
**.initialStatus = "down"
**.scenarioManager.script = xmldoc("scenario.xml")
*.host.numWlanInterfaces=2

*.host.mobility.typename = "StationaryMobility"
**.mobility.constraintAreaMinX = 0m
**.mobility.constraintAreaMinY = 0m
**.mobility.constraintAreaMinZ = 0m
**.mobility.constraintAreaMaxX = 1000m
**.mobility.constraintAreaMaxY = 1000m
**.mobility.constraintAreaMaxZ = 0m
**.mobility.initFromDisplayString = false
**.mobility.initialX = 500m
**.mobility.initialY = 500m
**.mobility.initialZ = 0m

# nic
*.host*.wlan[*].typename = "AckingWirelessInterface"
*.host.wlan[*].bitrate = 54Mbps
*.host*.wlan[*].mac.headerLength = 10B
*.host*.wlan[*].mac.fullDuplex = false
*.host*.wlan[*].radio.typename = "UnitDiskRadio"
*.host*.wlan[*].radio.transmitter.bitrate = 2Mbps
*.host*.wlan[*].radio.transmitter.communicationRange = 1km
*.host*.wlan[*].radio.transmitter.interferenceRange = 5km
*.host*.wlan[*].radio.transmitter.detectionRange = 10km
*.host*.wlan[*].radio.receiver.ignoreInterference = true

%file: test.ned

import inet.test.moduletest.lib.*;
import inet.node.wireless.AccessPoint;
import inet.physicallayer.wireless.unitdisk.UnitDiskRadioMedium;
import inet.common.scenario.ScenarioManager;


network Test
{
    submodules:
        radioMedium: UnitDiskRadioMedium;
        scenarioManager: ScenarioManager;
        host: AccessPoint;
}


%file: scenario.xml

<scenario>
    <at t="1.0">
        <startup module="host"/>
    </at>
</scenario>

%contains-regex: stdout

Test.host starting up
.*
Test.host started
%#--------------------------------------------------------------------------------------------------------------
%postrun-command: grep "undisposed object:" test.out > test_undisposed.out || true
%not-contains: test_undisposed.out
undisposed object: (
%#--------------------------------------------------------------------------------------------------------------
