%description:

Test shutdown and startup operations on WirelessHost when receiving.

%#--------------------------------------------------------------------------------------------------------------
%inifile: omnetpp.ini

[General]
network = Test
ned-path = .;../../../../src;../../lib
cmdenv-express-mode = false
record-eventlog = true
sim-time-limit = 100s

#omnetpp 5.0 - 5.1 compatibility:
eventlog-file = "${resultdir}/${configname}-${runnumber}.elog"
output-scalar-file = "${resultdir}/${configname}-${runnumber}.sca"
output-vector-file = "${resultdir}/${configname}-${runnumber}.vec"
snapshot-file = "${resultdir}/${configname}-${runnumber}.sna"

**.hasStatus = true
**.scenarioManager.script = xmldoc("scenario.xml")
*.host*.numWlanInterfaces=1

*.host*.ipv4.configurator.networkConfiguratorModule = ""

*.hostsender.numApps = 1
*.hostsender.app[0].typename = "DhcpClient"

*.host*.mobility.typename = "StationaryMobility"
**.mobility.constraintAreaMinX = 0m
**.mobility.constraintAreaMinY = 0m
**.mobility.constraintAreaMinZ = 0m
**.mobility.constraintAreaMaxX = 1000m
**.mobility.constraintAreaMaxY = 1000m
**.mobility.constraintAreaMaxZ = 0m
**.mobility.initFromDisplayString = false
**.host.mobility.initialX = 100m
**.hostsender.mobility.initialX = 900m
**.host*.mobility.initialY = 500m
**.mobility.initialZ = 0m

%#--------------------------------------------------------------------------------------------------------------
%file: test.ned

import inet.test.moduletest.lib.*;
import inet.common.scenario.ScenarioManager;
import inet.node.inet.AdhocHost;
import inet.physicallayer.ieee80211.packetlevel.Ieee80211ScalarRadioMedium;

network Test
{
    submodules:
        radioMedium: Ieee80211ScalarRadioMedium;
        scenarioManager: ScenarioManager;
        host: AdhocHost;
        hostsender: AdhocHost;
}

%#--------------------------------------------------------------------------------------------------------------
%file: scenario.xml

<scenario>
    <at t="0.003">
        <shutdown module="host"/>
    </at>
    <at t="10.0">
        <startup module="host"/>
    </at>
    <at t="10.003">
        <shutdown module="host"/>
    </at>
</scenario>

%#--------------------------------------------------------------------------------------------------------------
%contains-regex: stdout

Test.host shutting down
.*
Test.host shut down
.*
Test.host starting up
.*
Test.host started
.*
Test.host shutting down
.*
Test.host shut down
%#--------------------------------------------------------------------------------------------------------------
%not-contains: stdout
undisposed object:
%not-contains: stdout
-- check module destructor
%#--------------------------------------------------------------------------------------------------------------
