%description:

Test crash and startup operations on AccessPoint.

%inifile: omnetpp.ini

[General]
network = Test
ned-path = .;../../../../src;../../lib
cmdenv-express-mode = false
record-eventlog = true
sim-time-limit = 3s

#omnetpp 5.0 - 5.1 compatibility:
eventlog-file = "${resultdir}/${configname}-${runnumber}.elog"
output-scalar-file = "${resultdir}/${configname}-${runnumber}.sca"
output-vector-file = "${resultdir}/${configname}-${runnumber}.vec"
snapshot-file = "${resultdir}/${configname}-${runnumber}.sna"

**.hasStatus = true
**.scenarioManager.script = xmldoc("scenario.xml")
*.host.numWlanInterfaces=2

*.host.mobility.typename = "StationaryMobility"
**.mobility.constraintAreaMinX = 0m
**.mobility.constraintAreaMinY = 0m
**.mobility.constraintAreaMinZ = 0m
**.mobility.constraintAreaMaxX = 1000m
**.mobility.constraintAreaMaxY = 1000m
**.mobility.constraintAreaMaxZ = 0m
**.mobility.initFromDisplayString = false
**.mobility.initialX = 500m
**.mobility.initialY = 500m
**.mobility.initialZ = 0m

%file: test.ned

import inet.test.moduletest.lib.*;
import inet.node.wireless.AccessPoint;
import inet.status.NodeStatus;
import inet.physicallayer.wireless.ieee80211.packetlevel.Ieee80211ScalarRadioMedium;
import inet.common.scenario.ScenarioManager;

network Test
{
    submodules:
        radioMedium: Ieee80211ScalarRadioMedium;
        scenarioManager: ScenarioManager;
        host: AccessPoint;
}

%file: scenario.xml

<scenario>
    <at t="1.0">
        <crash module="host"/>
    </at>
    <at t="2.0">
        <startup module="host"/>
    </at>
</scenario>

%contains-regex: stdout

Test.host crashing
.*
Test.host crashed
.*
Test.host starting up
.*
Test.host started
%#--------------------------------------------------------------------------------------------------------------
%postrun-command: grep "undisposed object:" test.out > test_undisposed.out || true
%not-contains: test_undisposed.out
undisposed object: (
%#--------------------------------------------------------------------------------------------------------------
