%description:
Tests the detectL2Movement feature of Ipv6NeighbourDiscovery: with it enabled,
a mobile node completes a MIPv6 handover even under realistic (slow) Router
Advertisement intervals, because it solicits a Router Advertisement immediately
upon associating with the new access point instead of waiting for the next periodic
RA.

Same scenario as MIPv6_handover, but the periodic RA interval is set slow
(150..600s, so no unsolicited RA arrives within the 60s run after the handover) and
detectL2Movement is enabled. The handover must still succeed -- which is only
possible via the Router Solicitation sent on L2 (re)association.

%#--------------------------------------------------------------------------------------------------------------
%inifile: omnetpp.ini
[General]
ned-path = .;../../../../src;../../lib
network = inet.test.moduletest.lib.Mipv6Network
sim-time-limit = 60s
cmdenv-express-mode = false
cmdenv-log-prefix = "%C: "
num-rngs = 3
seed-set = 1
**.mobility.rng-0 = 2

# number of MNs and CNs
*.total_mn = 1
*.total_cn = 1

# Realistic, slow RAs: a periodic (unsolicited) RA would not arrive in time to
# trigger the handover within the 60s run. Movement detection must come from the
# Router Solicitation sent on association.
**.neighbourDiscovery.minIntervalBetweenRAs = 150s
**.neighbourDiscovery.maxIntervalBetweenRAs = 600s
**.neighbourDiscovery.detectL2Movement = true

# channel physical parameters
*.radioMedium.mediumLimitCache.maxTransmissionPower = 2.0mW
*.radioMedium.mediumLimitCache.minReceptionPower = -82dBm
*.radioMedium.mediumLimitCache.minInterferencePower = -82dBm

# access point
**.wlan*.mgmt.numAuthSteps = 4

# ALL APs common parameters
**.AP*.wlan*.mgmt.beaconInterval = 0.1s

# Access Point parameters
**.AP_Home.wlan*.mgmt.ssid = "HOME"
**.AP_Home.wlan*.address = "10:AA:00:00:00:01"
**.AP_Home.eth[0].address = "10:AE:00:00:00:02"
**.AP_Home.eth[0].duplexMode = true

**.AP_1.wlan*.mgmt.ssid = "AP1"
**.AP_1.wlan*.address = "10:AA:00:00:A1:01"
**.AP_1.eth[0].address = "10:AE:00:00:A1:02"
**.AP_1.eth[0].duplexMode = true

# mobility
**.mobility.constraintAreaMinZ = 0m
**.mobility.constraintAreaMaxZ = 0m

**.MN[0].mobility.typename = "RectangleMobility"
**.MN[0].mobility.constraintAreaMinX = 180m
**.MN[0].mobility.constraintAreaMinY = 170m
**.MN[0].mobility.constraintAreaMaxX = 630m
**.MN[0].mobility.constraintAreaMaxY = 180m
**.MN[0].mobility.startPos = 0
**.MN[0].mobility.speed = 10mps
**.MN*.mobility.updateInterval = 0.1s

# No apps needed - we just test the handover signaling
**.MN*.numApps = 0
**.CN*.numApps = 0

# ip settings
**.forwarding = false

# Ethernet NIC configuration
**.eth[*].queue.typename = "EthernetQosQueue"
**.eth[*].queue.dataQueue.typename = "DropTailQueue"
**.eth[*].queue.dataQueue.packetCapacity = 10
**.eth*.duplexMode = true

# analog model
**.analogModel.ignorePartialInterference = true

# wireless channels
**.AP_Home.wlan*.radio.channelNumber = 1
**.AP_1.wlan*.radio.channelNumber = 2
**.MN*.wlan*.radio.channelNumber = 0

# wireless configuration
**.wlan*.agent.activeScan = true
**.wlan*.agent.defaultSsid = ""
**.wlan*.agent.channelsToScan = "1 2"
**.wlan*.agent.probeDelay = 0.1s
**.wlan*.agent.minChannelTime = 0.15s
**.wlan*.agent.maxChannelTime = 0.3s
**.wlan*.agent.authenticationTimeout = 5s
**.wlan*.agent.associationTimeout = 5s

# nic settings
**.wlan*.bitrate = 2Mbps
**.wlan*.mac.dcf.channelAccess.cwMin = 7
**.radio.transmitter.power = 2.0mW

**.constraintAreaMinX = 0m
**.constraintAreaMinY = 0m
**.constraintAreaMaxX = 850m
**.constraintAreaMaxY = 850m

#omnetpp 5.0 - 5.1 compatibility:
eventlog-file = "${resultdir}/${configname}-${runnumber}.elog"
output-scalar-file = "${resultdir}/${configname}-${runnumber}.sca"
output-vector-file = "${resultdir}/${configname}-${runnumber}.vec"
snapshot-file = "${resultdir}/${configname}-${runnumber}.sna"

%#--------------------------------------------------------------------------------------------------------------
%subst: /omnetpp:://
%#--------------------------------------------------------------------------------------------------------------
%contains: stdout
Mipv6Network.MN[0].ipv6.mipv6: Initiating Mobile Ipv6 protocol...
%#--------------------------------------------------------------------------------------------------------------
%contains: stdout
Mipv6Network.Home_Agent.ipv6.mipv6: BU validation passed
%#--------------------------------------------------------------------------------------------------------------
%contains: stdout
Mipv6Network.MN[0].ipv6.mipv6: Binding was accepted.
%#--------------------------------------------------------------------------------------------------------------
%postrun-command: grep "undisposed object:" test.out > test_undisposed.out || true
%not-contains: test_undisposed.out
undisposed object: (
%#--------------------------------------------------------------------------------------------------------------
