%description:
Two mobile nodes register with the same home agent. Both start at home, move into the
foreign network on the same path (a constant gap apart so their positions never coincide)
and hand over; each obtains a care-of address and registers it, so the home agent holds a
separate binding per mobile node.

%#--------------------------------------------------------------------------------------------------------------
%inifile: omnetpp.ini
[General]
ned-path = .;../../../../src;../../lib
network = inet.test.moduletest.lib.Mipv6Network
sim-time-limit = 70s
cmdenv-express-mode = false
cmdenv-log-prefix = "%C: "
num-rngs = 3
seed-set = 1
**.mobility.rng-0 = 2

*.total_mn = 2
*.total_cn = 1

**.neighbourDiscovery.minIntervalBetweenRAs = 0.03s
**.neighbourDiscovery.maxIntervalBetweenRAs = 0.07s
**.neighbourDiscovery.detectL2Movement = false

*.radioMedium.mediumLimitCache.maxTransmissionPower = 2.0mW
*.radioMedium.mediumLimitCache.minReceptionPower = -82dBm
*.radioMedium.mediumLimitCache.minInterferencePower = -82dBm

**.wlan*.mgmt.numAuthSteps = 4
**.AP*.wlan*.mgmt.beaconInterval = 0.1s
**.AP_Home.wlan*.mgmt.ssid = "HOME"
**.AP_Home.wlan*.address = "10:AA:00:00:00:01"
**.AP_Home.eth[0].address = "10:AE:00:00:00:02"
**.AP_Home.eth[0].duplexMode = true
**.AP_1.wlan*.mgmt.ssid = "AP1"
**.AP_1.wlan*.address = "10:AA:00:00:A1:01"
**.AP_1.eth[0].address = "10:AE:00:00:A1:02"
**.AP_1.eth[0].duplexMode = true

**.mobility.constraintAreaMinZ = 0m
**.mobility.constraintAreaMaxZ = 0m
**.MN*.mobility.typename = "RectangleMobility"
**.MN*.mobility.constraintAreaMinX = 180m
**.MN*.mobility.constraintAreaMinY = 170m
**.MN*.mobility.constraintAreaMaxX = 630m
**.MN*.mobility.constraintAreaMaxY = 180m
**.MN*.mobility.speed = 10mps
**.MN[0].mobility.startPos = 0
**.MN[1].mobility.startPos = 0.1
**.MN*.mobility.updateInterval = 0.1s

**.MN*.numApps = 0
**.CN*.numApps = 0

**.forwarding = false
**.eth[*].queue.typename = "EthernetQosQueue"
**.eth[*].queue.dataQueue.typename = "DropTailQueue"
**.eth[*].queue.dataQueue.packetCapacity = 10
**.eth*.duplexMode = true
**.analogModel.ignorePartialInterference = true
**.AP_Home.wlan*.radio.channelNumber = 1
**.AP_1.wlan*.radio.channelNumber = 2
**.MN*.wlan*.radio.channelNumber = 0
**.wlan*.agent.activeScan = true
**.wlan*.agent.defaultSsid = ""
**.wlan*.agent.channelsToScan = "1 2"
**.wlan*.agent.probeDelay = 0.1s
**.wlan*.agent.minChannelTime = 0.15s
**.wlan*.agent.maxChannelTime = 0.3s
**.wlan*.agent.authenticationTimeout = 5s
**.wlan*.agent.associationTimeout = 5s
**.wlan*.bitrate = 2Mbps
**.wlan*.mac.dcf.channelAccess.cwMin = 7
**.radio.transmitter.power = 2.0mW
**.constraintAreaMinX = 0m
**.constraintAreaMinY = 0m
**.constraintAreaMaxX = 850m
**.constraintAreaMaxY = 850m

#omnetpp 5.0 - 5.1 compatibility:
eventlog-file = "${resultdir}/${configname}-${runnumber}.elog"
output-scalar-file = "${resultdir}/${configname}-${runnumber}.sca"
output-vector-file = "${resultdir}/${configname}-${runnumber}.vec"
snapshot-file = "${resultdir}/${configname}-${runnumber}.sna"

%#--------------------------------------------------------------------------------------------------------------
%subst: /omnetpp:://
%#--------------------------------------------------------------------------------------------------------------
%contains: stdout
Mipv6Network.MN[0].ipv6.mipv6: Binding was accepted.
%#--------------------------------------------------------------------------------------------------------------
%contains: stdout
Mipv6Network.MN[1].ipv6.mipv6: Binding was accepted.
%#--------------------------------------------------------------------------------------------------------------
