%description:

Checks module interface lookup for loopback network interface module.

%file: TestNetwork.ned

import inet.common.MessageDispatcher;
import inet.linklayer.loopback.LoopbackInterface;
import inet.networklayer.common.InterfaceTable;

network TestNetwork
{
    parameters:
        *.interfaceTableModule = absPath(".interfaceTable");
        @networkNode;
    submodules:
        messageDispatcher: MessageDispatcher;
        interfaceTable: InterfaceTable;
        loopbackInterface: LoopbackInterface;
        test: Test;
    connections:
        loopbackInterface.upperLayerOut --> messageDispatcher.in++;
        loopbackInterface.upperLayerIn <-- messageDispatcher.out++;
}

%inifile: omnetpp.ini

[General]
network = TestNetwork
ned-path = .;../../../../src
sim-time-limit = 0s

cmdenv-log-prefix = "%>"

%includes
#include "inet/common/IModuleInterfaceLookup.h"
#include "inet/common/ProtocolTag_m.h"
#include "inet/common/packet/Packet.h"
#include "inet/linklayer/common/InterfaceTag_m.h"
#include "inet/queueing/contract/IPassivePacketSink.h"

%activity:
using namespace inet;
using namespace inet::queueing;

#define CHECK(gate, argument) { std::cerr << printToStringIfPossible(argument, 0) << " --> " << (findModuleInterface(gate, typeid(IPassivePacketSink), &argument) != nullptr ? "found" : "not found") << std::endl; }

auto messageDispatcher = cSimulation::getActiveSimulation()->getSystemModule()->getModuleByPath("messageDispatcher");
auto loopbackInterface = messageDispatcher->gate("out", 0);

InterfaceReq interfaceReq;
interfaceReq.setInterfaceId(100);
CHECK(loopbackInterface, interfaceReq);

DispatchProtocolReq dispatchProtocolReq;
dispatchProtocolReq.setServicePrimitive(SP_REQUEST);

dispatchProtocolReq.setProtocol(&Protocol::ppp);
CHECK(loopbackInterface, dispatchProtocolReq);

dispatchProtocolReq.setProtocol(&Protocol::ethernetMac);
CHECK(loopbackInterface, dispatchProtocolReq);

dispatchProtocolReq.setProtocol(&Protocol::ipv4);
CHECK(loopbackInterface, dispatchProtocolReq);

%contains: stderr
InterfaceReq, interfaceId = 100 --> found
DispatchProtocolReq, protocol = ppp(52), servicePrimitive = 1 (SP_REQUEST) --> not found
DispatchProtocolReq, protocol = ethernetmac(12), servicePrimitive = 1 (SP_REQUEST) --> not found
DispatchProtocolReq, protocol = ipv4(38), servicePrimitive = 1 (SP_REQUEST) --> not found

%#--------------------------------------------------------------------------------------------------------------
%postrun-command: grep "undisposed object:" test.out > test_undisposed.out || true
%not-contains: test_undisposed.out
undisposed object: (
%#--------------------------------------------------------------------------------------------------------------
