%description:

TODO

%file: TestNetwork.ned

import inet.common.MessageDispatcher;
import inet.queueing.sink.PassivePacketSink;
import inet.transportlayer.tcp.Tcp;

network TestNetwork
{
    submodules:
        messageDispatcher: MessageDispatcher;
        tcp: Tcp;
        upperSink: PassivePacketSink;
        lowerSink: PassivePacketSink;
        test: Test;
    connections:
        messageDispatcher.out++ --> tcp.appIn;
        messageDispatcher.out++ --> tcp.ipIn;
        tcp.appOut --> upperSink.in;
        tcp.ipOut --> lowerSink.in;
}

%inifile: omnetpp.ini

[General]
network = TestNetwork
ned-path = .;../../../../src
sim-time-limit = 0s

cmdenv-log-prefix = "%>"

%includes
#include "inet/common/IModuleInterfaceLookup.h"
#include "inet/common/ProtocolTag_m.h"
#include "inet/queueing/contract/IPassivePacketSink.h"

%activity:
using namespace inet;
using namespace inet::queueing;

auto messageDispatcher = cSimulation::getActiveSimulation()->getSystemModule()->getModuleByPath("messageDispatcher");
auto appInGate = messageDispatcher->gate("out", 0);
auto ipInGate = messageDispatcher->gate("out", 1);

DispatchProtocolReq dispatchProtocolReq;
dispatchProtocolReq.setProtocol(&Protocol::tcp);

PacketProtocolTag packetProtocolTag;
packetProtocolTag.setProtocol(&Protocol::tcp);

PacketServiceTag packetServiceTag;
packetServiceTag.setProtocol(&Protocol::tcp);

dispatchProtocolReq.setServicePrimitive(SP_REQUEST);
ASSERT(findModuleInterface(appInGate, typeid(IPassivePacketSink), &dispatchProtocolReq));
ASSERT(!findModuleInterface(ipInGate, typeid(IPassivePacketSink), &dispatchProtocolReq));

dispatchProtocolReq.setServicePrimitive(SP_INDICATION);
ASSERT(!findModuleInterface(appInGate, typeid(IPassivePacketSink), &dispatchProtocolReq));
ASSERT(findModuleInterface(ipInGate, typeid(IPassivePacketSink), &dispatchProtocolReq));

// TODO ASSERT(findModuleInterface(appInGate, typeid(IPassivePacketSink), &packetServiceTag));
// TODO ASSERT(!findModuleInterface(appInGate, typeid(IPassivePacketSink), &packetProtocolTag));

ASSERT(findModuleInterface(ipInGate, typeid(IPassivePacketSink), &packetProtocolTag));
ASSERT(!findModuleInterface(ipInGate, typeid(IPassivePacketSink), &packetServiceTag));

%#--------------------------------------------------------------------------------------------------------------
%postrun-command: grep "undisposed object:" test.out > test_undisposed.out || true
%not-contains: test_undisposed.out
undisposed object: (
%#--------------------------------------------------------------------------------------------------------------
