%description:

TODO

%file: TestNetwork.ned

import inet.common.MessageDispatcher;
import inet.queueing.sink.PassivePacketSink;
import inet.networklayer.common.InterfaceTable;
import inet.linklayer.ethernet.basic.EthernetEncapsulation;

network TestNetwork
{
    parameters:
        *.interfaceTableModule = absPath(".interfaceTable");
        @networkNode;
    submodules:
        interfaceTable: InterfaceTable;
        messageDispatcher: MessageDispatcher;
        ethernet: EthernetEncapsulation;
        upperSink: PassivePacketSink;
        lowerSink: PassivePacketSink;
        test: Test;
    connections:
        messageDispatcher.out++ --> ethernet.upperLayerIn;
        messageDispatcher.out++ --> ethernet.lowerLayerIn;
        ethernet.upperLayerOut --> upperSink.in;
        ethernet.lowerLayerOut --> lowerSink.in;
}

%inifile: omnetpp.ini

[General]
network = TestNetwork
ned-path = .;../../../../src
sim-time-limit = 0s

cmdenv-log-prefix = "%>"

%includes
#include "inet/common/IModuleInterfaceLookup.h"
#include "inet/common/ProtocolTag_m.h"
#include "inet/queueing/contract/IPassivePacketSink.h"

%activity:
using namespace inet;
using namespace inet::queueing;

auto messageDispatcher = cSimulation::getActiveSimulation()->getSystemModule()->getModuleByPath("messageDispatcher");
auto transportInGate = messageDispatcher->gate("out", 0);
auto ifInGate = messageDispatcher->gate("out", 1);

DispatchProtocolReq dispatchProtocolReq;
dispatchProtocolReq.setProtocol(&Protocol::ethernetMac);

PacketProtocolTag packetProtocolTag;
packetProtocolTag.setProtocol(&Protocol::ethernetMac);

PacketServiceTag packetServiceTag;
packetServiceTag.setProtocol(&Protocol::ethernetMac);

dispatchProtocolReq.setServicePrimitive(SP_REQUEST);
ASSERT(findModuleInterface(transportInGate, typeid(IPassivePacketSink), &dispatchProtocolReq));
ASSERT(!findModuleInterface(ifInGate, typeid(IPassivePacketSink), &dispatchProtocolReq));

dispatchProtocolReq.setServicePrimitive(SP_INDICATION);
ASSERT(!findModuleInterface(transportInGate, typeid(IPassivePacketSink), &dispatchProtocolReq));
ASSERT(findModuleInterface(ifInGate, typeid(IPassivePacketSink), &dispatchProtocolReq));

// TODO ASSERT(findModuleInterface(transportInGate, typeid(IPassivePacketSink), &packetServiceTag));
// TODO ASSERT(!findModuleInterface(transportInGate, typeid(IPassivePacketSink), &packetProtocolTag));

ASSERT(findModuleInterface(ifInGate, typeid(IPassivePacketSink), &packetProtocolTag));
ASSERT(!findModuleInterface(ifInGate, typeid(IPassivePacketSink), &packetServiceTag));

%#--------------------------------------------------------------------------------------------------------------
%postrun-command: grep "undisposed object:" test.out > test_undisposed.out || true
%not-contains: test_undisposed.out
undisposed object: (
%#--------------------------------------------------------------------------------------------------------------
