%description:
Negative-case companion to mpls_php.test: same scenario, but with
**.LSR*.ldp.advertiseImplicitNull = false, locking in that the pre-PHP
behavior (egress allocates a real pop label and advertises it) still works
when an operator opts out of penultimate hop popping.

%#--------------------------------------------------------------------------------------------------------------
%inifile: test.ini

[General]
ned-path = ../../../../examples;../../../../src
network = inet.examples.mpls.ldp.LDPTEST
sim-time-limit = 2s
total-stack = 64MiB
record-vector-results = false
cmdenv-express-mode = false
**.cmdenv-log-level = "info"
output-scalar-file = "${resultdir}/${configname}-#${runnumber}.sca"

**.host1.numApps = 1
**.host1.app[0].typename = "UdpBasicApp"
**.host1.app[0].localPort = 100
**.host1.app[0].destPort = 100
**.host1.app[0].messageLength = 128 bytes
**.host1.app[0].sendInterval = 0.01s
**.host1.app[0].destAddresses = "host2"

**.host{2..4}.numApps = 1
**.host{2..4}.app[0].typename = "UdpSink"
**.host{2..4}.app[0].localPort = 100

**.host1.ipv4.routingTable.routingFile = "../../../../examples/mpls/ldp/host1.rt"
**.host2.ipv4.routingTable.routingFile = "../../../../examples/mpls/ldp/host2.rt"
**.host3.ipv4.routingTable.routingFile = "../../../../examples/mpls/ldp/host3.rt"
**.host4.ipv4.routingTable.routingFile = "../../../../examples/mpls/ldp/host4.rt"

**.LSR1.ipv4.routingTable.routingFile = "../../../../examples/mpls/ldp/LSR1.rt"
**.LSR2.ipv4.routingTable.routingFile = "../../../../examples/mpls/ldp/LSR2.rt"
**.LSR3.ipv4.routingTable.routingFile = "../../../../examples/mpls/ldp/LSR3.rt"
**.LSR4.ipv4.routingTable.routingFile = "../../../../examples/mpls/ldp/LSR4.rt"
**.LSR5.ipv4.routingTable.routingFile = "../../../../examples/mpls/ldp/LSR5.rt"

**.ppp[*].queue.typename = "DropTailQueue"
**.ppp[*].queue.packetCapacity = 10

**.LSR*.holdTime = 6s
**.LSR*.helloInterval = 2s
**.LSR*.ldp.advertiseImplicitNull = false

**.scenarioManager.script = xml("<scenario/>")

%#--------------------------------------------------------------------------------------------------------------
%# the data plane is label-switched, as usual (ingress LSR1 still pushes)
%contains: stdout
doStackOps: {PUSH
%#--------------------------------------------------------------------------------------------------------------
%# with PHP disabled, the egress must go back to allocating a real pop entry
%# and advertising a real label -- not the implicit null label
%not-contains: stdout
advertising implicit null label
%#--------------------------------------------------------------------------------------------------------------
%# the egress (LSR3) still pops the label itself, the pre-PHP way
%contains: stdout
doStackOps: {POP}
%#--------------------------------------------------------------------------------------------------------------
%# host traffic is still delivered end-to-end with the old egress-pop behavior
%postrun-command: grep "packetReceived:count" results/General-#0.sca | awk '$NF > 0 { print "DELIVERED", $0 }' > delivered.out
%contains: delivered.out
DELIVERED
%#--------------------------------------------------------------------------------------------------------------
%postrun-command: grep "undisposed object:" test.out > test_undisposed.out || true
%not-contains: test_undisposed.out
undisposed object: (
%#--------------------------------------------------------------------------------------------------------------
