%description:
Regression test for RFC 3443 MPLS TTL processing (pipe model) in
examples/mpls/ldp (network LDPTEST).

Same scenario as mpls_ttl.test (host1 sends to host2 with a small IP TTL, over
the label-switched path LSR1 -> LSR2 -> LSR3), except **.LSR*.mpls.ttlModel is
"pipe": the pushed label's TTL is seeded from defaultTtl (255), independent of
the small IP TTL, so it can never reach zero inside this 3-hop MPLS domain and
the datagram is delivered without any MPLS-domain ICMP Time Exceeded -- the
"MPLS label TTL expired" line from mpls_ttl.test must NOT appear here.

%#--------------------------------------------------------------------------------------------------------------
%inifile: test.ini

[General]
ned-path = ../../../../examples;../../../../src
network = inet.examples.mpls.ldp.LDPTEST
sim-time-limit = 2s
total-stack = 64MiB
record-vector-results = false
cmdenv-express-mode = false
**.cmdenv-log-level = "info"
output-scalar-file = "${resultdir}/${configname}-#${runnumber}.sca"

**.host1.numApps = 1
**.host1.app[0].typename = "UdpBasicApp"
**.host1.app[0].localPort = 100
**.host1.app[0].destPort = 100
**.host1.app[0].messageLength = 128 bytes
**.host1.app[0].sendInterval = 0.01s
**.host1.app[0].destAddresses = "host2"
**.host1.app[0].timeToLive = 1

**.host3.numApps = 1
**.host3.app[0].typename = "UdpBasicApp"
**.host3.app[0].localPort = 100
**.host3.app[0].destPort = 100
**.host3.app[0].messageLength = 128 bytes
**.host3.app[0].sendInterval = 0.01s
**.host3.app[0].destAddresses = "host4"

**.host{2..4}.numApps = 1
**.host{2..4}.app[0].typename = "UdpSink"
**.host{2..4}.app[0].localPort = 100

**.host1.ipv4.routingTable.routingFile = "../../../../examples/mpls/ldp/host1.rt"
**.host2.ipv4.routingTable.routingFile = "../../../../examples/mpls/ldp/host2.rt"
**.host3.ipv4.routingTable.routingFile = "../../../../examples/mpls/ldp/host3.rt"
**.host4.ipv4.routingTable.routingFile = "../../../../examples/mpls/ldp/host4.rt"

**.LSR1.ipv4.routingTable.routingFile = "../../../../examples/mpls/ldp/LSR1.rt"
**.LSR2.ipv4.routingTable.routingFile = "../../../../examples/mpls/ldp/LSR2.rt"
**.LSR3.ipv4.routingTable.routingFile = "../../../../examples/mpls/ldp/LSR3.rt"
**.LSR4.ipv4.routingTable.routingFile = "../../../../examples/mpls/ldp/LSR4.rt"
**.LSR5.ipv4.routingTable.routingFile = "../../../../examples/mpls/ldp/LSR5.rt"

**.ppp[*].queue.typename = "DropTailQueue"
**.ppp[*].queue.packetCapacity = 10

**.LSR*.holdTime = 6s
**.LSR*.helloInterval = 2s

**.LSR*.mpls.ttlModel = "pipe"

**.scenarioManager.script = xml("<scenario/>")

%#--------------------------------------------------------------------------------------------------------------
%# the data plane is label-switched, as usual
%contains: stdout
doStackOps: {PUSH
%#--------------------------------------------------------------------------------------------------------------
%# pipe model: the label TTL starts at defaultTtl (255), not the small IP TTL,
%# so it never runs out inside this 3-hop MPLS domain
%not-contains: stdout
MPLS label TTL expired
%#--------------------------------------------------------------------------------------------------------------
%# host traffic is actually delivered over the LDP-established LSP
%postrun-command: grep "packetReceived:count" results/General-#0.sca | awk '$NF > 0 { print "DELIVERED", $0 }' > delivered.out
%contains: delivered.out
DELIVERED
%#--------------------------------------------------------------------------------------------------------------
%postrun-command: grep "undisposed object:" test.out > test_undisposed.out || true
%not-contains: test_undisposed.out
undisposed object: (
%#--------------------------------------------------------------------------------------------------------------
