%description:
GridNeighborCache test based on Ping results.
%#--------------------------------------------------------------------------------------------------------------
%file: test.ned

import inet.common.lifecycle.LifecycleController;
import inet.common.scenario.ScenarioManager;
import inet.networklayer.configurator.ipv4.IPv4NetworkConfigurator;
import inet.networklayer.ipv4.RoutingTableRecorder;
import inet.node.aodv.AODVRouter;
import inet.physicallayer.ideal.IdealRadioMedium;


network NeighborCacheTest
{
    parameters:
        int numHosts;
    submodules:
        radioMedium: IdealRadioMedium {
            parameters:
                @display("p=50,50");
        }
        configurator: IPv4NetworkConfigurator {
            parameters:
                config = xml("<config><interface hosts='*' address='145.236.x.x' netmask='255.255.0.0'/></config>");
                @display("p=50,100");
        }
        routingTableRecorder: RoutingTableRecorder {
            parameters:
                @display("p=50,150");
        }
        lifecycleController: LifecycleController {
            parameters:
                @display("p=50,200");
        }
        scenarioManager: ScenarioManager {
            parameters:
                script = default(xml("<scenario/>"));
                @display("p=50,250");
        }
        host[numHosts]: AODVRouter {
            parameters:
                @display("i=device/pocketpc_s;r=,,#707070");
        }
    connections allowunconnected:
}


%#--------------------------------------------------------------------------------------------------------------
%inifile: omnetpp.ini

[General]
network = NeighborCacheTest
record-eventlog = true
num-rngs = 3
sim-time-limit = 60s
cmdenv-express-mode = true
cmdenv-status-frequency = 1000s
**.mobility.rng-0 = 1
**.wlan[*].mac.rng-0 = 2
ned-path = .;../../../../src;../../lib

# channel physical parameters
**.wlan[*].typename = "IdealWirelessNic"
**.wlan[*].bitrate = 2Mbps
**.wlan[*].mac.address = "auto"
**.wlan[*].mac.headerLength = 20B
**.wlan[*].radioType = "IdealRadio"
**.wlan[*].radio.transmitter.maxCommunicationRange = 250m
**.wlan[*].radio.transmitter.maxInterferenceRange = 0m
**.wlan[*].radio.transmitter.maxDetectionRange = 0m
**.wlan[*].radio.receiver.ignoreInterference = true
*.numHosts = 20

# mobility
**.host[0..1].mobilityType = "StationaryMobility"
**.host[1].mobility.initialX = 600m
**.host[1].mobility.initialY = 600m
**.host[2..20].mobilityType = "LinearMobility"
**.host[2..20].mobility.speed = 8mps
**.mobility.constraintAreaMinZ = 0m
**.mobility.constraintAreaMaxZ = 0m
**.mobility.constraintAreaMinX = 0m
**.mobility.constraintAreaMinY = 0m
**.mobility.constraintAreaMaxX = 600m
**.mobility.constraintAreaMaxY = 600m
**.host[2..20].mobility.changeInterval = normal(5s, 0.1s)
**.host[2..20].mobility.changeAngleBy = normal(0deg, 30deg)

# ping app
*.host[0].numPingApps = 1
*.host[0].pingApp[0].startTime = uniform(1s,5s)
*.host[0].pingApp[0].printPing = true
*.host[0].pingApp[0].destAddr = "host[1](ipv4)"

# lifecycle
**.hasStatus = true

# AODV protocol settings
**.aodv.activeRouteTimeout = 3s

# neighbor cache settigns
**.neighborCache.refillPeriod = 1s

# radio medium
**.radioMedium.maxCommunicationRange = 250m
**.radioMedium.rangeFilter = "communicationRange"

**.radioMedium.neighborCacheType = "GridNeighborCache"
**.radioMedium.neighborCache.cellSizeX = 100m
**.radioMedium.neighborCache.cellSizeY = 100m
**.radioMedium.neighborCache.cellSizeZ = 100m

%#--------------------------------------------------------------------------------------------------------------
%contains: stdout
NeighborCacheTest.host[0].pingApp[0]: reply of 56 bytes from 145.236.0.20 icmp_seq=0 ttl=24 time=1626.878483401 msec (ping0)
NeighborCacheTest.host[0].pingApp[0]: reply of 56 bytes from 145.236.0.20 icmp_seq=4 ttl=22 time=1463.110685866 msec (ping4)
NeighborCacheTest.host[0].pingApp[0]: reply of 56 bytes from 145.236.0.20 icmp_seq=5 ttl=22 time=463.495505259 msec (ping5)
NeighborCacheTest.host[0].pingApp[0]: reply of 56 bytes from 145.236.0.20 icmp_seq=6 ttl=22 time=3.846324067 msec (ping6)
NeighborCacheTest.host[0].pingApp[0]: reply of 56 bytes from 145.236.0.20 icmp_seq=7 ttl=22 time=3.846389268 msec (ping7)
NeighborCacheTest.host[0].pingApp[0]: reply of 56 bytes from 145.236.0.20 icmp_seq=8 ttl=22 time=3.84645918 msec (ping8)
NeighborCacheTest.host[0].pingApp[0]: reply of 56 bytes from 145.236.0.20 icmp_seq=9 ttl=22 time=3.846533742 msec (ping9)
NeighborCacheTest.host[0].pingApp[0]: reply of 56 bytes from 145.236.0.20 icmp_seq=10 ttl=22 time=3.846612898 msec (ping10)
NeighborCacheTest.host[0].pingApp[0]: reply of 56 bytes from 145.236.0.20 icmp_seq=11 ttl=22 time=3.84669658 msec (ping11)
NeighborCacheTest.host[0].pingApp[0]: reply of 56 bytes from 145.236.0.20 icmp_seq=12 ttl=22 time=3.846784718 msec (ping12)
NeighborCacheTest.host[0].pingApp[0]: reply of 56 bytes from 145.236.0.20 icmp_seq=13 ttl=22 time=3.846877241 msec (ping13)
NeighborCacheTest.host[0].pingApp[0]: reply of 56 bytes from 145.236.0.20 icmp_seq=14 ttl=22 time=3.846974069 msec (ping14)
NeighborCacheTest.host[0].pingApp[0]: reply of 56 bytes from 145.236.0.20 icmp_seq=15 ttl=22 time=3.847075116 msec (ping15)
NeighborCacheTest.host[0].pingApp[0]: reply of 56 bytes from 145.236.0.20 icmp_seq=16 ttl=22 time=3.847180288 msec (ping16)
NeighborCacheTest.host[0].pingApp[0]: reply of 56 bytes from 145.236.0.20 icmp_seq=18 ttl=24 time=348.641404596 msec (ping18)
NeighborCacheTest.host[0].pingApp[0]: reply of 56 bytes from 145.236.0.20 icmp_seq=19 ttl=24 time=3.077572095 msec (ping19)
NeighborCacheTest.host[0].pingApp[0]: reply of 56 bytes from 145.236.0.20 icmp_seq=21 ttl=24 time=342.463074606 msec (ping21)
NeighborCacheTest.host[0].pingApp[0]: reply of 56 bytes from 145.236.0.20 icmp_seq=22 ttl=24 time=3.07744183 msec (ping22)
NeighborCacheTest.host[0].pingApp[0]: reply of 56 bytes from 145.236.0.20 icmp_seq=23 ttl=24 time=3.07745749 msec (ping23)
NeighborCacheTest.host[0].pingApp[0]: reply of 56 bytes from 145.236.0.20 icmp_seq=25 ttl=24 time=1911.704140543 msec (ping25)
NeighborCacheTest.host[0].pingApp[0]: reply of 56 bytes from 145.236.0.20 icmp_seq=26 ttl=24 time=912.088856128 msec (ping26)
NeighborCacheTest.host[0].pingApp[0]: reply of 56 bytes from 145.236.0.20 icmp_seq=28 ttl=24 time=341.534894375 msec (ping28)
NeighborCacheTest.host[0].pingApp[0]: reply of 56 bytes from 145.236.0.20 icmp_seq=29 ttl=24 time=3.077347615 msec (ping29)
NeighborCacheTest.host[0].pingApp[0]: reply of 56 bytes from 145.236.0.20 icmp_seq=31 ttl=24 time=338.11789383 msec (ping31)
NeighborCacheTest.host[0].pingApp[0]: reply of 56 bytes from 145.236.0.20 icmp_seq=32 ttl=24 time=3.077010418 msec (ping32)
NeighborCacheTest.host[0].pingApp[0]: reply of 56 bytes from 145.236.0.20 icmp_seq=33 ttl=24 time=3.07697702 msec (ping33)
NeighborCacheTest.host[0].pingApp[0]: reply of 56 bytes from 145.236.0.20 icmp_seq=34 ttl=24 time=3.076946667 msec (ping34)
NeighborCacheTest.host[0].pingApp[0]: reply of 56 bytes from 145.236.0.20 icmp_seq=35 ttl=24 time=3.076919447 msec (ping35)
NeighborCacheTest.host[0].pingApp[0]: reply of 56 bytes from 145.236.0.20 icmp_seq=36 ttl=24 time=3.076895498 msec (ping36)
NeighborCacheTest.host[0].pingApp[0]: reply of 56 bytes from 145.236.0.20 icmp_seq=37 ttl=24 time=3.076875014 msec (ping37)
NeighborCacheTest.host[0].pingApp[0]: reply of 56 bytes from 145.236.0.20 icmp_seq=38 ttl=24 time=3.076858253 msec (ping38)
NeighborCacheTest.host[0].pingApp[0]: reply of 56 bytes from 145.236.0.20 icmp_seq=39 ttl=24 time=3.076845537 msec (ping39)
NeighborCacheTest.host[0].pingApp[0]: reply of 56 bytes from 145.236.0.20 icmp_seq=41 ttl=24 time=2450.529126207 msec (ping41)
NeighborCacheTest.host[0].pingApp[0]: reply of 56 bytes from 145.236.0.20 icmp_seq=42 ttl=24 time=1450.913849871 msec (ping42)
NeighborCacheTest.host[0].pingApp[0]: reply of 56 bytes from 145.236.0.20 icmp_seq=45 ttl=24 time=340.538524256 msec (ping45)
NeighborCacheTest.host[0].pingApp[0]: reply of 56 bytes from 145.236.0.20 icmp_seq=46 ttl=24 time=3.077556916 msec (ping46)
NeighborCacheTest.host[0].pingApp[0]: reply of 56 bytes from 145.236.0.20 icmp_seq=48 ttl=24 time=344.91344088 msec (ping48)
NeighborCacheTest.host[0].pingApp[0]: reply of 56 bytes from 145.236.0.20 icmp_seq=49 ttl=24 time=3.076783925 msec (ping49)
NeighborCacheTest.host[0].pingApp[0]: reply of 56 bytes from 145.236.0.20 icmp_seq=50 ttl=24 time=3.07674496 msec (ping50)
NeighborCacheTest.host[0].pingApp[0]: reply of 56 bytes from 145.236.0.20 icmp_seq=51 ttl=24 time=3.076710984 msec (ping51)
NeighborCacheTest.host[0].pingApp[0]: reply of 56 bytes from 145.236.0.20 icmp_seq=52 ttl=24 time=3.076681843 msec (ping52)
NeighborCacheTest.host[0].pingApp[0]: reply of 56 bytes from 145.236.0.20 icmp_seq=53 ttl=24 time=3.076657369 msec (ping53)
NeighborCacheTest.host[0].pingApp[0]: reply of 56 bytes from 145.236.0.20 icmp_seq=54 ttl=24 time=3.07663738 msec (ping54)
NeighborCacheTest.host[0].pingApp[0]: reply of 56 bytes from 145.236.0.20 icmp_seq=55 ttl=24 time=3.076621688 msec (ping55)
NeighborCacheTest.host[0].pingApp[0]: reply of 56 bytes from 145.236.0.20 icmp_seq=56 ttl=24 time=3.076610103 msec (ping56)
%not-contains: stdout
-- check module destructor
%#--------------------------------------------------------------------------------------------------------------
