%description:

Test ping stop followed by node shutdown.

%inifile: omnetpp.ini

[General]
network = Test
tkenv-plugin-path = ../../../etc/plugins
ned-path = .;../../../../src;../../lib
cmdenv-express-mode = false
sim-time-limit = 9s

*.host.numPingApps = 1
*.host.pingApp[0].destAddr = "192.168.0.42"
*.host.pingApp[0].startTime = 0s
*.host.pingApp[0].stopTime = 4s

*.host.networkLayer.configurator.networkConfiguratorModule = ""

**.hasStatus = true
**.scenarioManager.script = xmldoc("scenario.xml")

%file: test.ned

import inet.nodes.inet.StandardHost;
import inet.base.LifecycleController;
import inet.world.scenario.ScenarioManager;

network Test
{
    submodules:
        scenarioManager: ScenarioManager;
        lifecycleController: LifecycleController;
        host: StandardHost;
}

%file: scenario.xml
 
<scenario>
    <at t="6.0">
        <tell module="lifecycleController" target="host" operation="NodeShutdownOperation"/>
    </at>
</scenario>

%contains-regex: stdout
.*Event #\d+  T=0 .*
Starting up: .*
Sending ping #0
.*
.*Event #\d+  T=3 .*
Sending ping #3
.*
.*Event #\d+  T=6 .*
.*
Test.host shutting down
.*
Test.host shut down

<!> No more events -- simulation ended at event #\d+, t=6

%#--------------------------------------------------------------------------------------------------------------
%not-contains: stdout
undisposed object:
%not-contains: stdout
-- check module destructor
%#--------------------------------------------------------------------------------------------------------------
