%description:

Test for IEEE 802.11 power model with two adhoc nodes. One node is pinging the
other. The source node is initially down, the destination node is initially up.
The battery of the source node is initially depleted and it's being charged. The
source node starts when the battery reaches the configured capacity. The battery
of the destination node is initially full and gets depleted during the run. The
destination node shuts down when the battery reaches the configured capacity.
The end result is that the number of successful ping messages is less than if
there were no batteries involved at all.

%file: test.ned

import inet.networklayer.configurator.ipv4.IPv4NetworkConfigurator;
import inet.node.inet.AdhocHost;
import inet.physicallayer.ieee80211.Ieee80211RadioMedium;
import inet.common.lifecycle.LifecycleController;

network Test
{
    submodules:
        lifecycleController: LifecycleController;
        radioMedium: Ieee80211RadioMedium;
        configurator: IPv4NetworkConfigurator;
        hostSource: AdhocHost;
        hostDestination: AdhocHost;
}

%inifile: omnetpp.ini

[General]
network = Test
tkenv-plugin-path = ../../../etc/plugins
ned-path = .;../../../../src;../../lib
sim-time-limit = 100s
cmdenv-express-mode = false

# status
**.hasStatus = true
*.hostSource.status.initialStatus = "down"
*.hostDestination.status.initialStatus = "up"

# power
**.energyStorageType = "SimpleEnergyStorage"
**.energyConsumerType = "StateBasedEnergyConsumer"
**.energyStorage.nominalCapacity = 1J
**.energyStorage.nodeShutdownCapacity = 0J
**.energyStorage.nodeStartCapacity = 0.2 * this.nominalCapacity
*.hostSource.energyStorage.initialCapacity = 0J
*.hostDestination.energyStorage.initialCapacity = 0.1J
*.hostSource.energyGeneratorType = "AlternatingEnergyGenerator"
*.hostSource.energyGenerator.energySinkModule = "hostSource.energyStorage"
*.hostSource.energyGenerator.powerGeneration = 10mW
*.hostSource.energyGenerator.sleepInterval = 0s
*.hostSource.energyGenerator.generationInterval = 10s

# mobility
**.mobility.constraintAreaMinZ = 0m
**.mobility.constraintAreaMinX = 0m
**.mobility.constraintAreaMinY = 0m
**.mobility.constraintAreaMaxX = 100m
**.mobility.constraintAreaMaxY = 100m
**.mobility.constraintAreaMaxZ = 0m
**.mobility.initFromDisplayString = false
**.mobility.initialY = 50m
**.mobility.initialZ = 0m
*.host*.mobilityType = "StationaryMobility"
*.hostSource.mobility.initialX = 20m
*.hostDestionation.mobility.initialX = 80m

# ping app
*.host*.numPingApps = 1
*.hostSource.pingApp[0].destAddr = "hostDestination"
*.hostSource.pingApp[0].printPing = true

%contains: stdout
ping hostDestination (10.0.0.2):
sent: 81   received: 30   loss rate (%): 62.963
round-trip min/avg/max (ms): 0.462262/0.501837/1.64952
stddev (ms): 0.216763   variance:4.69864e-08
%#--------------------------------------------------------------------------------------------------------------
%not-contains: stdout
undisposed object:
%not-contains: stdout
-- check module destructor
%#--------------------------------------------------------------------------------------------------------------
