%description:

This is a test for ApskScalarRadio receiving reception state.
The received signal is strong enough to receive.
Transmission and reception parameters must match with DetailedRadio.

%file: test.ned

import inet.networklayer.configurator.ipv4.Ipv4NetworkConfigurator;
import inet.node.inet.WirelessHost;
import inet.physicallayer.apskradio.packetlevel.ApskScalarRadioMedium;

network Test
{
    submodules:
        radioMedium: ApskScalarRadioMedium;
        configurator: Ipv4NetworkConfigurator;
        host1: WirelessHost;
        host2: WirelessHost;
}

%inifile: omnetpp.ini

[General]
network = Test
sim-time-limit = 80us
record-eventlog = true
ned-path = .;../../../../src

#omnetpp 5.0 - 5.1 compatibility:
eventlog-file = "${resultdir}/${configname}-${runnumber}.elog"
output-scalar-file = "${resultdir}/${configname}-${runnumber}.sca"
output-vector-file = "${resultdir}/${configname}-${runnumber}.vec"
snapshot-file = "${resultdir}/${configname}-${runnumber}.sna"

**.arp.typename = "GlobalArp"

**.mobility.constraintAreaMinZ = 0m
**.mobility.constraintAreaMinX = 0m
**.mobility.constraintAreaMinY = 0m
**.mobility.constraintAreaMaxX = 1000m
**.mobility.constraintAreaMaxY = 1000m
**.mobility.constraintAreaMaxZ = 0m
**.mobility.initFromDisplayString = false
**.mobility.initialY = 500m
**.mobility.initialZ = 0m
*.host*.mobility.typename = "StationaryMobility"
*.host1.mobility.initialX = 200m
*.host2.mobility.initialX = 800m

# radio medium
*.radioMedium.backgroundNoise.power = -110dBm

# nic
*.host*.wlan[*].typename = "AckingWirelessInterface"
*.host*.wlan[*].bitrate = 2Mbps
*.host*.wlan[*].mac.headerLength = 10B
*.host*.wlan[*].mac.fullDuplex = false
*.host*.wlan[*].radio.typename = "ApskScalarRadio"
*.host*.wlan[*].radio.transmitter.bitrate = 2Mbps
*.host*.wlan[*].radio.transmitter.preambleDuration = 0s
*.host*.wlan[*].radio.transmitter.headerLength = 96b
*.host*.wlan[*].radio.transmitter.power = 100mW
*.host*.wlan[*].radio.centerFrequency = 2.4GHz
*.host*.wlan[*].radio.bandwidth = 2MHz
*.host*.wlan[*].radio.receiver.energyDetection = -90dBm
*.host*.wlan[*].radio.receiver.sensitivity = -80dBm
*.host*.wlan[*].radio.receiver.snirThreshold = 10dB

# ping app
*.host1.numApps = 1
*.host1.app[0].typename = "PingApp"
*.host1.app[0].count = 1
*.host1.app[0].printPing = true
*.host1.app[0].destAddr = "host2"
*.host1.app[0].startTime = 0s

%#--------------------------------------------------------------------------------------------------------------
%# remove colorizing
%subst: /\x1B\[[0-9;]*m//
%#--------------------------------------------------------------------------------------------------------------
%contains: results/General-0.elog
Changing radio reception state from IDLE to RECEIVING.
%#--------------------------------------------------------------------------------------------------------------
%not-contains: stdout
undisposed object:
%not-contains: stdout
-- check module destructor
%#--------------------------------------------------------------------------------------------------------------
