%description:

This is a test for SimplifiedRadio receiving reception state.
The received signal is strong enough to receive.
Transmission and reception parameters must match with DetailedRadio.

%file: test.ned

import inet.networklayer.autorouting.ipv4.IPv4NetworkConfigurator;
import inet.nodes.inet.WirelessHost;
import inet.physicallayer.radio.simplified.SimplifiedRadioChannel;

network Test
{
    submodules:
        radioChannel: SimplifiedRadioChannel;
        configurator: IPv4NetworkConfigurator;
        host1: WirelessHost;
        host2: WirelessHost;
}

%inifile: omnetpp.ini

[General]
network = Test
sim-time-limit = 80us
record-eventlog = true
ned-path = .;../../../../src

**.globalARP = true

**.mobility.constraintAreaMinZ = 0m
**.mobility.constraintAreaMinX = 0m
**.mobility.constraintAreaMinY = 0m
**.mobility.constraintAreaMaxX = 1000m
**.mobility.constraintAreaMaxY = 1000m
**.mobility.constraintAreaMaxZ = 0m
**.mobility.initFromDisplayString = false
**.mobility.initialY = 500m
**.mobility.initialZ = 0m
*.host*.mobilityType = "StationaryMobility"
*.host1.mobility.initialX = 200m
*.host2.mobility.initialX = 800m

# channel
*.radioChannel.carrierFrequency = 2.4e+9Hz
*.radioChannel.pMax = 100mW
*.radioChannel.sat = -110dBm
*.radioChannel.alpha = 2

# nic
*.host*.wlan[*].typename = "IdealWirelessNic"
*.host*.wlan[*].bitrate = 2Mbps
*.host*.wlan[*].mac.headerLength = 10B
*.host*.wlan[*].mac.fullDuplex = false
*.host*.wlan[*].radioType = "GenericRadio"
*.host*.wlan[*].radio.thermalNoise = -110dBm
*.host*.wlan[*].radio.sensitivity = -80dBm
*.host*.wlan[*].radio.receptionThreshold = -90dBm
*.host*.wlan[*].radio.setReceptionThreshold = true
*.host*.wlan[*].radio.snirThreshold = 10dB
*.host*.wlan[*].radio.transmitterPower = 100mW
*.host*.wlan[*].radio.headerLengthBits = 100b
*.host*.wlan[*].radio.bandwidth = 2MHz
*.host*.wlan[*].radio.modulation = "BPSK"

# ping app
*.host1.numPingApps = 1
*.host1.pingApp[0].count = 1
*.host1.pingApp[0].printPing = true
*.host1.pingApp[0].destAddr = "host2"
*.host1.pingApp[0].startTime = 0s

%contains: results/General-0.elog
 - Changing radio reception state from IDLE to RECEIVING.
%#--------------------------------------------------------------------------------------------------------------
%not-contains: stdout
undisposed object:
%not-contains: stdout
-- check module destructor
%#--------------------------------------------------------------------------------------------------------------
