%description:

Test for basic TCP application lifecycle handling.

Sequence of operations:
 - at 0 client initializes to down
 - at 0 server initializes to down
 - at 1 client executes startup operation
 - at 2 server executes startup operation
 - simulation stops at 3

%inifile: omnetpp.ini

[General]
network = Test
tkenv-plugin-path = ../../../etc/plugins
ned-path = .;../../../../src;../../lib
cmdenv-express-mode = false
sim-time-limit = 3s
record-eventlog = true

**.hasStatus = true
**.initialStatus = "down"
**.scenarioManager.script = xmldoc("scenario.xml")

**.arp.retryCount = 0
**.arp.retryTimeout = 100ms

# tcp apps
**.numTcpApps = 1
**.client.tcpApp[0].typename = "TCPBasicClientApp"
**.client.tcpApp[0].startTime = 0s
**.client.tcpApp[0].localPort = -1
**.client.tcpApp[0].connectAddress = "server"
**.client.tcpApp[0].connectPort = 1000
**.client.tcpApp[0].numRequestsPerSession = 1000
**.client.tcpApp[0].requestLength = 100B
**.client.tcpApp[0].idleInterval = 1000000s
**.client.tcpApp[0].thinkTime = 100ms

**.server.tcpApp[0].typename = "TCPEchoApp"
**.server.tcpApp[0].localPort = 1000

**.tcpApp[0].dataTransferMode = "bytecount"

%file: test.ned

import inet.node.ethernet.Eth10M;
import inet.node.inet.StandardHost;
import inet.networklayer.configurator.ipv4.IPv4NetworkConfigurator;
import inet.common.lifecycle.LifecycleController;
import inet.common.scenario.ScenarioManager;

network Test
{
    submodules:
        scenarioManager: ScenarioManager;
        lifecycleController: LifecycleController;
        configurator: IPv4NetworkConfigurator;
        client: StandardHost;
        server: StandardHost;
    connections:
        client.ethg++ <--> Eth10M <--> server.ethg++;
}

%file: scenario.xml
  
<scenario>
    <at t="1">
        <tell module="lifecycleController" target="client" operation="NodeStartOperation"/>
    </at>
    <at t="2">
        <tell module="lifecycleController" target="server" operation="NodeStartOperation"/>
    </at>
</scenario>

%contains-regex: stdout

.*
Test.client starting up
.*
Test.client started
.*
Test.server starting up
.*
Test.server started
.*
Test.client.tcpApp\[0\]: received 0 bytes in 0 packets
.*

%#--------------------------------------------------------------------------------------------------------------
%not-contains: stdout
undisposed object:
%not-contains: stdout
-- check module destructor
%#--------------------------------------------------------------------------------------------------------------
