%description:

Tests communication tracking at the service level of the physical layer on a wireless network.

%file: test.ned

import inet.networklayer.configurator.ipv4.Ipv4NetworkConfigurator;
import inet.node.inet.AdhocHost;
import inet.physicallayer.wireless.ieee80211.packetlevel.Ieee80211ScalarRadioMedium;
import inet.tracker.integrated.IntegratedTracker;

network TestNetwork
{
    submodules:
        tracker: IntegratedTracker;
        radioMedium: Ieee80211ScalarRadioMedium;
        configurator: Ipv4NetworkConfigurator;
        source: AdhocHost;
        destination: AdhocHost;
        neighbor: AdhocHost;
}

%inifile: omnetpp.ini

[General]
network = TestNetwork
sim-time-limit = 1s
ned-path = .;../../../../src

**.arp.typename = "GlobalArp"

**.host*.mobility.typename = "StationaryMobility"
**.mobility.constraintAreaMinZ = 0m
**.mobility.constraintAreaMinX = 0m
**.mobility.constraintAreaMinY = 0m
**.mobility.constraintAreaMaxX = 1000m
**.mobility.constraintAreaMaxY = 1000m
**.mobility.constraintAreaMaxZ = 0m

# ping app
*.source.numApps = 1
*.source.app[0].typename = "PingApp"
*.source.app[0].destAddr = "destination"
*.source.app[0].startTime = 0s

**.mobility.initFromDisplayString = false
**.mobility.initialY = 500m
**.mobility.initialZ = 0m

*.source.mobility.initialX = 200m
*.destination.mobility.initialX = 800m
*.neighbor.mobility.initialX = 500m

*.tracker.physicalLinkTracker.fileName = "results/physical-layer.log"
*.tracker.physicalLinkTracker.trackLinks = true
*.tracker.physicalLinkTracker.activityLevel = "service"

%contains: results/physical-layer.log
TestNetwork.source	TestNetwork.neighbor	ping0	physical_layer service_level
TestNetwork.source	TestNetwork.destination	ping0	physical_layer service_level
TestNetwork.destination	TestNetwork.neighbor	WlanAck	physical_layer service_level
TestNetwork.destination	TestNetwork.source	WlanAck	physical_layer service_level
TestNetwork.destination	TestNetwork.neighbor	ping0-reply	physical_layer service_level
TestNetwork.destination	TestNetwork.source	ping0-reply	physical_layer service_level
TestNetwork.source	TestNetwork.neighbor	WlanAck	physical_layer service_level
TestNetwork.source	TestNetwork.destination	WlanAck	physical_layer service_level
