%description:
Tests that the TypeOfService UDP socket option takes effect over IPv6.

NClientsEth example network is used, with one client.
The client sends a packet with a given ToS.
It is checked that the server receives the datagram with the correct ToS value.

%#--------------------------------------------------------------------------------------------------------------
%inifile: omnetpp.ini
[General]
record-vector-results = false
ned-path = ../../../../examples;../../../../src
network = inet.examples.ipv6.nclients.NClientsEth
sim-time-limit = 15s
cmdenv-express-mode = false

# number of client computers
*.n = 1

# udp apps
**.cli[*].numApps = 1
**.cli[*].app[0].typename = "UdpBasicApp"
**.cli[*].app[0].destAddresses = "srv"
**.cli[*].app[0].destPort = 1000
**.cli[*].app[0].messageLength = 64B
**.cli[*].app[0].tos = 53  # some abritrary value

**.cli[*].app[0].startTime = 10s
**.cli[*].app[0].stopTime = 11s
**.cli[*].app[0].sendInterval = 10s

**.srv.numApps = 1
**.srv.app[0].typename = "UdpSink"
**.srv.app[0].localPort = 1000

%#--------------------------------------------------------------------------------------------------------------
%subst: /omnetpp:://
%#--------------------------------------------------------------------------------------------------------------
%contains-regex: stdout
Received packet: \(inet::Packet\)UdpBasicAppData-0 .* TOS=53
%#--------------------------------------------------------------------------------------------------------------
%postrun-command: grep "undisposed object:" test.out > test_undisposed.out || true
%not-contains: test_undisposed.out
undisposed object: (
%#--------------------------------------------------------------------------------------------------------------
