%description:
Tests that TimeToLive UDP socket option takes effect over IPv6.

NClientsEth example network is used, with one client.
The client sends a packet with a given TTL.
It is checked that the server receives the datagram with the
given TTL minus the number of hops.

%#--------------------------------------------------------------------------------------------------------------
%inifile: {}.ini
[General]
ned-path = ../../../../examples;../../../../src
network = inet.examples.ipv6.nclients.NClientsEth
sim-time-limit = 15s
cmdenv-express-mode = false

# number of client computers
*.n = 1

# udp apps
**.cli[*].numApps = 1
**.cli[*].app[0].typename = "UDPBasicApp"
**.cli[*].app[0].destAddresses = "srv"
**.cli[*].app[0].destPort = 1000
**.cli[*].app[0].messageLength = 64B
**.cli[*].app[0].timeToLive = 77  # some peculiar value

**.cli[*].app[0].startTime = 10s
**.cli[*].app[0].stopTime = 11s
**.cli[*].app[0].sendInterval = 10s

**.srv.numApps = 1
**.srv.app[0].typename = "UDPSink"
**.srv.app[0].localPort = 1000

%#--------------------------------------------------------------------------------------------------------------
%subst: /omnetpp:://
%#--------------------------------------------------------------------------------------------------------------
%contains-regex: stdout
Received packet: \(inet::ApplicationPacket\)UDPBasicAppData-0 .* TTL=74
%#--------------------------------------------------------------------------------------------------------------
%not-contains: stdout
undisposed object:
%not-contains: stdout
-- check module destructor
%#--------------------------------------------------------------------------------------------------------------
