[General]
network = AODVNetworkWithEthernet
num-rngs = 3
sim-time-limit = 500s
**.mobility.rng-0 = 1
**.wlan[*].mac.rng-0 = 2

*.numHosts = 20

# radio medium
*.radioMedium.sameTransmissionStartTimeCheck = "ignore"

# channel physical parameters
**.wlan[*].typename = "AckingWirelessInterface"
**.wlan[*].bitrate = 2Mbps
**.wlan[*].mac.headerLength = 23B
**.wlan[*].radio.typename = "GenericRadio"
**.wlan[*].radio.signalAnalogRepresentation = "unitDisk"
**.wlan[*].radio.transmitter.headerLength = 96b
**.wlan[*].radio.transmitter.analogModel.communicationRange = 250m
**.wlan[*].radio.transmitter.analogModel.interferenceRange = 0m
**.wlan[*].radio.transmitter.analogModel.detectionRange = 0m
**.wlan[*].radio.receiver.ignoreInterference = true

# Most important: configure an external gateway for the AODV network (on ALL AODV nodes).
# All traffic considered external will be routed towards this address.
**.aodv.gatewayAddress = "host[0]"
**.aodv.activeRouteTimeout = 1s

# Configure network addresses: AODV is on 10.0.x.x and wired network is on 192.168.x.x 
*.configurator.config = xml("<config><interface hosts='host[*]' names='wlan*' address='10.0.x.x' netmask='255.255.0.0'/><route hosts='host[0]' destination='*' interface='eth0' /><interface hosts='*' names='eth*' address='192.168.x.x' netmask='255.255.255.0'/></config>")
*.configurator.addDirectRoutes = false
# do not configure the routing tables of the AODV nodes. That will be managed by AODV automatically
*.host[1..].ipv4.configurator.configureRoutingTable = false

# mobility
**.mobility.constraintAreaMinZ = 0m
**.mobility.constraintAreaMaxZ = 0m
**.mobility.constraintAreaMinX = 0m
**.mobility.constraintAreaMinY = 0m
**.mobility.constraintAreaMaxX = 600m
**.mobility.constraintAreaMaxY = 600m

**.host[0].mobility.typename = "StationaryMobility"
**.host[1..19].mobility.typename = "MassMobility"
**.host[*].mobility.initFromDisplayString = false
**.host[0].mobility.initialX = 200m
**.host[0].mobility.initialY = 100m
**.host[1].mobility.initialX = 200m
**.host[1].mobility.initialY = 300m
**.host[2].mobility.initialX = 400m
**.host[2].mobility.initialY = 300m
**.host[*].mobility.changeInterval = normal(5s, 0.1s)
**.host[*].mobility.angleDelta = normal(0deg, 30deg)
**.host[*].mobility.speed = normal(3mps, 0.03mps)

**.host[0].display-name="gateway"
**.host[2].display-name="source"
**.host[2].display-string="i=,red"

# ping app
*.host[2].numApps = 1
*.host[2].app[0].typename = "PingApp"
*.host[2].app[0].startTime = 2s
*.host[2].app[0].printPing = true
*.host[2].app[0].destAddr = "ethernetHost"
*.ethernetHost.display-name = "destination"
*.ethernetHost.display-string="i=,green"

# visualizers 
*.visualizer.routingTableVisualizer.displayRoutingTables = true
*.visualizer.routingTableVisualizer.destinationFilter = "ethernetHost"

# interface visualization settings
*.visualizer.interfaceTableVisualizer.displayInterfaceTables = true
*.visualizer.interfaceTableVisualizer.nodeFilter = "not(*Switch*)"
*.visualizer.interfaceTableVisualizer.displayWiredInterfacesAtConnections = true
*.visualizer.interfaceTableVisualizer.format = "%N %n"

# ping visualization settings
*.visualizer.networkRouteVisualizer.displayRoutes = true
*.visualizer.networkRouteVisualizer.packetFilter = "*ping*"


