[General]
#debug-on-errors = true

sim-time-limit = 3000s
seed-0-mt = 5
network = Fg80211Net
cmdenv-express-mode = true
tkenv-plugin-path = ../../../etc/plugins
#tkenv-default-run=1

description = "FG Test - Mobility Example"

**.wlan[*].mgmt.vector-recording=true
**.wlan[*].**.vector-recording=false
**.wlan[*].vector-recording=false
**.manetroutingprotocol.vector-recording=true

#FG parameters
#**.ip.fgIsActive= true
#**.ip.fgIsActive= false
#**.manetroutingprotocol.alpha1 = 0
#**.manetroutingprotocol.alpha2 = 1
#**.manetroutingprotocol.beta1 = 0
#**.manetroutingprotocol.helloPeriod = 1
#**.manetroutingprotocol.newPDDelay = 0.1
#**.manetroutingprotocol.newTestDelay = 0.05

**.constraintAreaMinX = 0m
**.constraintAreaMinY = 0m
**.constraintAreaMinZ = 0m
**.constraintAreaMaxX = 1600m
**.constraintAreaMaxY = 600m
**.constraintAreaMaxZ = 0m
*.numFixHosts = 5
*.numHosts = 15
**.debug = true
**.coreDebug = false
**.channelNumber = 0


# channel physical parameters
*.channelControl.carrierFrequency = 2.4GHz
*.channelControl.pMax = 2.0mW
*.channelControl.sat = -110dBm
*.channelControl.alpha = 2
*.channelControl.numChannels = 1

# mobility
**.mobility.initFromDisplayString = false
**.fixhost[0].mobility.initialX = 50m
**.fixhost[0].mobility.initialY = 300m

**.fixhost[1].mobility.initialX = 1050m
**.fixhost[1].mobility.initialY = 300m

**.fixhost[2].mobility.initialX = 300m
**.fixhost[2].mobility.initialY = 200m

**.fixhost[3].mobility.initialX = 550m
**.fixhost[3].mobility.initialY = 300m

**.fixhost[4].mobility.initialX = 800m
**.fixhost[4].mobility.initialY = 200m

#**.fixhost[5].mobility.initialX = 1050m
#**.fixhost[5].mobility.initialY = 300m

#**.fixhost[6].mobility.initialX = 1250m
#**.fixhost[6].mobility.initialY = 200m

#**.fixhost[7].mobility.initialX = 1500m
#**.fixhost[7].mobility.initialY = 300m


**.host[0].mobility.initialX = 300m
**.host[0].mobility.initialY = 100m

**.host[1].mobility.initialX = 300m
**.host[1].mobility.initialY = 200m

**.host[2].mobility.initialX = 300m
**.host[2].mobility.initialY = 300m

**.host[3].mobility.initialX = 300m
**.host[3].mobility.initialY = 400m

**.host[4].mobility.initialX = 300m
**.host[4].mobility.initialY = 500m

**.host[5].mobility.initialX = 550m
**.host[5].mobility.initialY = 100m

**.host[6].mobility.initialX = 550m
**.host[6].mobility.initialY = 200m

**.host[7].mobility.initialX = 550m
**.host[7].mobility.initialY = 300m

**.host[8].mobility.initialX = 550m
**.host[8].mobility.initialY = 400m

**.host[9].mobility.initialX = 550m
**.host[9].mobility.initialY = 500m


**.host[10].mobility.initialX = 800m
**.host[10].mobility.initialY = 100m

**.host[11].mobility.initialX = 800m
**.host[11].mobility.initialY = 200m

**.host[12].mobility.initialX = 800m
**.host[12].mobility.initialY = 300m

**.host[13].mobility.initialX = 800m
**.host[13].mobility.initialY = 400m

**.host[14].mobility.initialX = 800m
**.host[14].mobility.initialY = 500m

**.host[0..14].mobilityType = "LinearMobility"
**.host[0..14].mobility.angle = -90deg
**.host[0..14].mobility.speed = 10mps
**.host[0..14].mobility.updateInterval = 0.1s
**.host[*].mobilityType = "StationaryMobility"

**.host[0].mobility.nodeId = 0
**.host[1].mobility.nodeId = 1
**.host[2].mobility.nodeId = 2
**.host[3].mobility.nodeId = 3
**.host[4].mobility.nodeId = 4



# udp apps (on)
**.fixhost[*].udpApp[0].typename = "UDPBasicBurst"
**.fixhost[*].numUdpApps = 1

**.fixhost[0].udpApp[0].destAddresses = "fixhost[1]"
**.fixhost[*].udpApp[0].destAddresses = ""

**.fixhost[*].udpApp[0].localPort = 1234
**.fixhost[*].udpApp[0].destPort = 1234
**.fixhost[*].udpApp[0].messageLength = 512B
**.fixhost[*].udpApp[0].sendInterval = 0.5s + uniform(-0.001s,0.001s)
**.fixhost[*].udpApp[0].chooseDestAddrMode = "perSend"
**.fixhost[*].udpApp[0].burstDuration = 0
**.fixhost[*].udpApp[0].sleepDuration = 0
**.fixhost[*].udpApp[0].stopTime = 0s
**.fixhost[*].udpApp[0].startTime = 60s
**.fixhost[*].udpApp[0].delayLimit = 100s


#**.fixhost[0].udpAppType = "UDPBasicBurst"
#**.fixhost[0].numUdpApps = 1
#**.fixhost[0].udpApp[0].localPort = 1234
#**fixhost[0].udpApp[0].destAddresses = ""

# ping app (off)
**.numPingApps = 0
#**.numPingApps = 1
#**.pingApp[0].destAddr = "fixhost[0]"
#**.pingApp[0].printPing = true

# tcp settings
**.tcp.mss = 1024
**.tcp.advertisedWindow = 14336  # 14*mss
#**.tcp.sendQueueClass = "TCPMsgBasedSendQueue"
#**.tcp.receiveQueueClass = "TCPMsgBasedRcvQueue"
**.tcp.tcpAlgorithmClass = "TCPReno"
**.tcp.recordStats = true

# ip settings
**.ip.procDelay = 10us
# **.IPForward=false

# ARP configuration
**.arp.cacheTimeout = 100s
#**.networklayer.proxyARP = true  # Host's is hardwired "false"

# nic settings
#**.wlan[*].mgmt.Willingness = 3
#**.wlan[*].mgmt.Hello_ival = 2
#**.wlan[*].mgmt.Tc_ival = 5
#**.wlan[*].mgmt.Mid_ival = 5
#**.wlan[*].mgmt.use_mac = false

# nic settings
**.wlan[*].bitrate = 54Mbps
**.wlan[*].opMode = "g"
**.wlan[*].mac.address = "auto"
**.wlan[*].mac.maxQueueSize = 14
**.wlan[*].mac.rtsThresholdBytes = 3000B
**.wlan[*].mac.basicBitrate = 6Mbps  # 24Mbps
**.wlan[*].mac.retryLimit = 3 #************************************************num of retrasmission before link break!!!!!
**.wlan[*].mac.cwMinData = 31
**.wlan[*].mac.cwMinBroadcast = 31
**.wlan[*].mac.slotTime = 9us #
**.wlan[*].mac.AIFSN = 2 #DIFS
**.wlan[*].radio.transmitterPower=2.0mW
**.wlan[*].radio.pathLossAlpha=2 ##################################################################
**.wlan[*].radio.snirThreshold = 4dB  # in dB
**.wlan[*].radio.thermalNoise=-110dBm
**.wlan[*].radio.sensitivity=-90dBm
**.wlan[*].radio.channelModel = "RAYLEIGH" #1/2  rayleigh/awgn
**.wlan[*].radio.berTableFile="per_table_80211g_Trivellato.dat"

#/ parameters : DYMOUM
[Config DYMOUM]
**.routingProtocol="DYMOUM"
**.manetrouting.no_path_acc_ = false
**.manetrouting.reissue_rreq_ = false
**.manetrouting.s_bit_ = false
**.manetrouting.hello_ival_ = 0
**.manetrouting.MaxPktSec = 20 #// 10
**.manetrouting.promiscuous = false
**.manetrouting.NetDiameter = 10
#**.manetrouting.RouteTimeOut = 3000
**.manetrouting.RouteTimeOut = 10000
#**.manetrouting.RouteDeleteTimeOut = 3000*5 #//5*RouteTimeOut
**.manetrouting.RouteDeleteTimeOut = 10000*5 #//5*RouteTimeOut
**.manetrouting.RREQWaitTime = 1000
**.manetrouting.RREQTries =3
**.manetrouting.noRouteBehaviour=1

#/ parameters : DYMO
[Config DYMO]
**.routingProtocol="DYMO"

 #   //  parameters: AODVUU;
[Config AODVUU]
**.routingProtocol="AODVUU"
**.manetrouting.log_to_file = false
**.manetrouting.hello_jittering = true
**.manetrouting.optimized_hellos = true
**.manetrouting.expanding_ring_search = true
**.manetrouting.local_repair = true
**.manetrouting.rreq_gratuitous = true
#**.debug = false
**.manetrouting.rt_log_interval = 0
**.manetrouting.unidir_hack = 0
**.manetrouting.internet_gw_mode = 0
**.manetrouting.receive_n_hellos = 1
**.manetrouting.ratelimit = 1000
**.manetrouting.llfeedback = false# //1000
**.manetrouting.wait_on_reboot = 0
**.manetrouting.active_timeout = 6000 # // time in ms
**.manetrouting.internet_gw_address = "0.0.0.0"

#  //  parameters: DSRUU;
[Config DSRUU]
**.routingProtocol="DSRUU"
**.manetrouting.PrintDebug = true
**.manetrouting.FlushLinkCache = true
**.manetrouting.PromiscOperation = false ###mod
**.manetrouting.UseNetworkLayerAck = false ###mod
**.manetrouting.BroadcastJitter = 20 # 20  ms
**.manetrouting.RouteCacheTimeout = 300 #300 seconds
**.manetrouting.SendBufferTimeout = 300# //30 s
**.manetrouting.SendBufferSize = -1
**.manetrouting.RequestTableSize = -1
**.manetrouting.RequestTableIds = -1
**.manetrouting.MaxRequestRexmt = -1 #// 16,
**.manetrouting.MaxRequestPeriod = 10 #//10 SECONDS
**.manetrouting.RequestPeriod = 500 #//500  MILLISECONDS
**.manetrouting.NonpropRequestTimeout = 30# //30  MILLISECONDS
**.manetrouting.RexmtBufferSize = -1 #//MAINT_BUF_MAX_LEN
**.manetrouting.MaintHoldoffTime = 250# //250 MILLISECONDS
**.manetrouting.MaxMaintRexmt = 2 # //2
**.manetrouting.TryPassiveAcks = true #//1
**.manetrouting.PassiveAckTimeout = 100# //100 MILLISECONDS
**.manetrouting.GratReplyHoldOff = 1 #, //1 SECONDS
**.manetrouting.MAX_SALVAGE_COUNT = 15 # //15
**.manetrouting.LifoSize = 20
**.manetrouting.PathCache = true
**.manetrouting.ETX_Active=false
**.manetrouting.ETXHelloInterval = 1 #, // Second
**.manetrouting.ETXWindowNumHello = 10
**.manetrouting.ETXRetryBeforeFail=-1
**.manetrouting.RREPDestinationOnly = false
**.manetrouting.RREQMaxVisit =5 # // Max Number that a RREQ can be processes by a node

#// Olsr
[Config OLSR]
**.routingProtocol="OLSR"
**.manetrouting.Willingness=3
**.manetrouting.Hello_ival=2
**.manetrouting.Tc_ival=5
**.manetrouting.Mid_ival=5
**.manetrouting.use_mac =0 #1

[Config OLSR_ETX]
**.routingProtocol="OLSR_ETX"
**.manetrouting.Willingness=3
**.manetrouting.Hello_ival=2
**.manetrouting.Tc_ival=5
**.manetrouting.Mid_ival=5
**.manetrouting.use_mac =0 #1
**.manetrouting.Mpr_algorithm =  1
**.manetrouting.routing_algorithm =   1
**.manetrouting.Link_quality = 2
**.manetrouting.Fish_eye = false
**.manetrouting.Tc_redundancy =    3
**.manetrouting.Link_delay = true
**.manetrouting.C_alpha=0.2

#// DSDV
[Config DSDV_2]
**.routingProtocol="DSDV_2"
**.manetrouting.hellomsgperiod_DSDV = 1s # //Period of DSDV hello message generation [seconds]
**.manetrouting.routeLifetime = 5s # // ;[seconds]
**.manetrouting.netmask = "255.255.0.0" # //
**.manetrouting.MaxVariance_DSDV = 1
**.manetrouting.RNGseed_DSDV = 0


#// Batman
[Config Batman]
**.routingProtocol="Batman"
