include omnetpp.ini

[Run 1]
sim-time-limit = 100s
fingerprint = "99c7-3d66"