[General]
network = CorruptionModeExample
sim-time-limit = 10s
#abstract-config = true (requires omnet 7)

**.fcsMode = "computed"
**.crcMode = "computed"

**.constraintAreaMinX = 0m
**.constraintAreaMinY = 0m
**.constraintAreaMinZ = 0m
**.constraintAreaMaxX = 1000m
**.constraintAreaMaxY = 1000m
**.constraintAreaMaxZ = 0m

# mobility
*.*Host.mobility.typename = "StationaryMobility"
*.*Host.mobility.initFromDisplayString = false
*.*Host.mobility.initialY = 500m
*.*Host.mobility.initialZ = 0m
*.sourceHost.mobility.initialX = 0m
*.destinationHost.mobility.initialX = 300m

# app
*.sourceHost.numApps = 1
*.sourceHost.app[0].typename = "PingApp"
*.sourceHost.app[0].destAddr = "destinationHost"
*.sourceHost.app[0].startTime = 0s
*.sourceHost.app[0].printPing = true

# radio medium
*.radioMedium.backgroundNoise.power = -110dBm

# radio
*.*Host.wlan[0].typename = "CsmaCaInterface"
*.*Host.wlan[0].mac.bitrate = 100Mbps
*.*Host.wlan[0].mac.retryLimit = 0
*.*Host.wlan[0].radio.typename = "ApskScalarRadio"
*.*Host.wlan[0].radio.centerFrequency = 2GHz
*.*Host.wlan[0].radio.bandwidth = 20MHz
*.*Host.wlan[0].radio.transmitter.power = 1mW
*.*Host.wlan[0].radio.transmitter.bitrate = 100Mbps
*.*Host.wlan[0].radio.transmitter.preambleDuration = 1us
*.*Host.wlan[0].radio.transmitter.headerLength = 64b
*.*Host.wlan[0].radio.transmitter.modulation = "QAM-64"
*.*Host.wlan[0].radio.receiver.sensitivity = -100dBm
*.*Host.wlan[0].radio.receiver.energyDetection = -100dBm
*.*Host.wlan[0].radio.receiver.snirThreshold = 0dB

[Config PacketCorruptionMode]
*.*Host.wlan[*].radio.receiver.errorModel.corruptionMode = "packet"

[Config ChunkCorruptionMode]
*.*Host.wlan[*].radio.receiver.errorModel.corruptionMode = "chunk"

[Config ByteCorruptionMode]
*.*Host.wlan[*].radio.receiver.errorModel.corruptionMode = "byte"

[Config BitCorruptionMode]
*.*Host.wlan[*].radio.receiver.errorModel.corruptionMode = "bit"
