[Config BestCase]
description = "An Ethernet 10BASE-T1S multidrop link with optimal zero pending packet delay"
# the multidrop link contains 4 nodes and 1 controller
# all nodes send traffic to the controller
# all nodes have packets to send right at the start of their respective transmit opportunities
# all nodes start transmitting immediately with zero pending packet delay
# therefore end-to-end delay equals to transmission delay + propagation delay
# total packet length is 46B (data) + 12B (MAC header) + 4B (FCS) + 8B (PHY header) + 1B (ESD)
# transmission delay is 73B * 8 / 10E+6bps = 58.4us
# propagation delay is different for each node because the cable length is different
# expected result:
#  - pending packet delay is always zero
#  - queue length is always zero
#  - end-to-end delay is constant

network = MultidropNetwork
sim-time-limit = 1ms

# network configuration
*.numNodes = 4

*.controller.typename = "EthernetPlcaHost"
*.node[*].typename = "EthernetPlcaHost"

# enable burst so that the commit signal after the data allows the next node to wait for the IFG,
# and start transmitting immediately at its next transmit opportunity
*.*.eth[*].plca.max_bc = 1

# source applications send to controller
*.node[*].numApps = 1
*.node[*].app[0].typename = "EthernetSourceApp"
*.node[*].app[0].io.interface = "eth0"
*.node[*].app[0].io.remoteAddress = "controller"
*.node[*].app[0].source.productionInterval = 295.2675us - 5.2075us
*.node[0].app[0].source.initialProductionOffset = 5.2075us
*.node[1].app[0].source.initialProductionOffset = 76.4175us
*.node[2].app[0].source.initialProductionOffset = 147.6275us
*.node[3].app[0].source.initialProductionOffset = 218.8375us
*.node[*].app[0].source.packetLength = 46B # minimum Ethernet payload size

# sink application receives packets from all nodes
*.controller.numApps = 1
*.controller.app[0].typename = "EthernetSinkApp"
*.controller.app[0].io.steal = true
*.controller.app[0].io.interface = "eth0"
*.controller.app[0].io.localAddress = "controller"

# enable interface visualization
*.visualizer.interfaceTableVisualizer.displayInterfaceTables = true
*.visualizer.interfaceTableVisualizer.format = "%N%\\%m"
