[Config NoTraffic]
network = MultidropNetwork
description = "Ethernet PLCA multidrop link without traffic"
# no nodes have packet to transmit
# the controller sends beacons
# all transmit opportunities are yielded
sim-time-limit = 100us

*.numNodes = 4

*.controller.typename = "EthernetPlcaHost"
*.node[*].typename = "EthernetPlcaHost"
