[Config Paper]
description = "Reproducing the results of the paper titled Network Performance Evaluation of IEEE 802.3cg"
# Network Performance Evaluation of IEEE 802.3cg
# Kyumin Kimw, Eunmin Choi, Ji-Woong Choi
# see https://www.researchgate.net/publication/341052590_Network_Performance_Evaluation_of_IEEE_8023cg
# the result analysis contains charts that should match the diagrams presented in figure 4-6 of the paper.

network = MultidropNetwork
sim-time-limit = 1s

# network configuration
*.numNodes = ${numNodes=1..8}

*.controller.typename = "EthernetPlcaHost"
*.node[*].typename = "EthernetPlcaHost"

# application configuration
*.node[*].numApps = 1
*.node[*].app[0].typename = "EthernetSourceApp"
*.node[*].app[0].io.interface = "eth0"
*.node[*].app[0].io.remoteAddress = "controller"
*.node[*].app[0].source.packetLength = intuniform(46B, 1500B)
*.node[*].app[0].source.productionInterval = poisson(${meanProductionInterval=3,5,10}) * 1ms

*.controller.numApps = 1
*.controller.app[0].typename = "EthernetSinkApp"
*.controller.app[0].io.interface = "eth0"
*.controller.app[0].io.localAddress = "controller"

# enable interface visualization
*.visualizer.interfaceTableVisualizer.displayInterfaceTables = true
*.visualizer.interfaceTableVisualizer.format = "%N%\\%m"
