[Config Throughput]
description = "Throughput analysis of an Ethernet 10BASE-T1S multidrop link"
# the multidrop link contains a variable number of nodes
# all nodes send traffic to the controller
# total offered traffic from all nodes exceeds channel capacity
# expected result:
#  - throughput is close to 10 Mbps
#  - transmit opportunity utilization is close to 100%
#  - channel utilization is close to 100%,

network = MultidropNetwork
sim-time-limit = 1s

# network configuration
*.numNodes = ${numNodes=1..10}

*.controller.typename = "EthernetPlcaHost"
*.node[*].typename = "EthernetPlcaHost"

# application configuration
*.node[*].numApps = 1
*.node[*].app[0].typename = "EthernetSourceApp"
*.node[*].app[0].io.interface = "eth0"
*.node[*].app[0].io.remoteAddress = "controller"
*.node[*].app[0].source.packetLength = ${packetLength=46, 1482}B # min and max
*.node[*].app[0].source.productionInterval = ${numNodes} * (${packetLength} + 14 + 4 + 8 + 1 + 12) * 8 / 10E+6 / 2 * 1s # MAC header + MAC FCS + PHY header + ESD + IFG and finally divided by 2 to be sure

*.controller.numApps = 1
*.controller.app[0].typename = "EthernetSinkApp"
*.controller.app[0].io.interface = "eth0"
*.controller.app[0].io.localAddress = "controller"

# PLCA configuration
*.*.eth[0].plca.max_bc = 3
