[General]
description = "Comparison of an Ethernet 10BASE-T1S multidrop link against an Ethernet CSMA/CD link"
# this network contains a variable number of network nodes
# all nodes send traffic to the controller
# the result analysis compares Ethernet PLCA to Ethernet CSMA/CD
# expected result:
#  - minimum end-to-end delay of Ethernet PLCA is close to CSMA/CD
#  - mean end-to-end delay of Ethernet PLCA is somewhat higher than that of CSMA/CD
#  - maximum end-to-end delay of Ethernet PLCA is significantly lower than that of CSMA/CD

network = MultidropNetwork
#abstract-config = true (requires omnet 7)
sim-time-limit = 100ms
#record-eventlog = true

# network configuration
*.numNodes = ${numNodes=1..10}

*.controller.typename = "EthernetPlcaHost"
*.node[*].typename = "EthernetPlcaHost"

# application configuration
*.node[*].numApps = 1
*.node[*].app[0].typename = "EthernetSourceApp"
*.node[*].app[0].io.interface = "eth0"
*.node[*].app[0].io.remoteAddress = "controller"
*.node[*].app[0].source.productionInterval = ${numNodes} * ${packetInterval=50,100,200,300,400,500,600,700,800,900,1000}us
*.node[*].app[0].source.packetLength = 46B # minimum Ethernet payload size

*.controller.numApps = 1
*.controller.app[0].typename = "EthernetSinkApp"
*.controller.app[0].io.interface = "eth0"
*.controller.app[0].io.localAddress = "controller"

# enable interface visualization
*.visualizer.interfaceTableVisualizer.displayInterfaceTables = true
*.visualizer.interfaceTableVisualizer.format = "%N%\\%m"

[Config HalfDuplex]
description = "Ethernet CSMA/CD using the single EthernetCsmaMacPhy module"

# network interface configuration
*.*.eth[0].typename = "EthernetInterface"
*.*.eth[0].duplexMode = false

[Config CSMACD]
description = "Ethernet CSMA/CD using separate EthernetCsmaMac and EthernetCsmaPhy modules which support adding Ethernet PLCA"

# network interface configuration
*.switch.eth[0].typename = "EthernetPlcaInterface"

# completely disable PLCA
**.plca.typename = ""

[Config PLCA]
description = "Ethernet PLCA using separate EthernetCsmaMac, EthernetPlca, and EthernetCsmaPhy modules"

# network interface configuration
*.switch.eth[0].typename = "EthernetPlcaInterface"

# PLCA configuration
*.*.eth[0].plca.max_bc = 3
