[General]
network = FifoNet
sim-time-limit = 1min
cpu-time-limit = 300s

#  select SQLite extensions
outputscalarmanager-class = "cSQLiteOutputScalarManager"
outputvectormanager-class = "cSQLiteOutputVectorManager"

# database connect parameters -- see SQLite documentation
#sqlite.sqlite-database = "./results/fifo-sqlite.db"

#sqliteoutputvectormanager-connectionname = anotherdb

#sqliteoutputscalarmanager-commit-freq = 30
#sqliteoutputscalarmanager-connectionname = anotherdb

[Config Fifo1-sqlite]
description = "low job arrival rate (with SQLite output)"
sqlite.sqlite-scalar-database = "results/Fifo1-scalar.db"
sqlite.sqlite-vector-database = "results/Fifo1-vector.db"
**.gen.sendIaTime = exponential(0.2s)
**.fifo.serviceTime = 0.01s
**.timeScale = 2.0

[Config Fifo2-sqlite]
description = "high job arrival rate (with SQLite output)"
sqlite.sqlite-scalar-database = "results/Fifo2-scalar.db"
sqlite.sqlite-vector-database = "results/Fifo2-vector.db"
**.gen.sendIaTime = exponential(0.01s)
**.fifo.serviceTime = 0.01s
**.timeScale = 2.0