[General]
network = FifoNet
sim-time-limit = 1min
cpu-time-limit = 300s

#  select SQLite extensions
outputvectormanager-class = "cSQLiteOutputVectorManager"
#outputscalarmanager-class = "cSQLiteOutputScalarManager"

# database connect parameters -- see SQLite documentation
#sqlite.sqlite-database = "./results/fifo-sqlite.db"

#sqliteoutputvectormanager-connectionname = anotherdb

#sqliteoutputscalarmanager-commit-freq = 30
#sqliteoutputscalarmanager-connectionname = anotherdb

[Config Fifo1-sqlite]
description = "low job arrival rate (with SQLite output)"
sqlite.sqlite-database = "results/Fifo1-sqlite.db"
**.gen.sendIaTime = exponential(0.2s)
**.fifo.serviceTime = 0.01s

[Config Fifo2-sqlite]
description = "high job arrival rate (with SQLite output)"
sqlite.sqlite-database = "results/Fifo2-sqlite.db"
**.gen.sendIaTime = exponential(0.01s)
**.fifo.serviceTime = 0.01s
