[Config inet_inet]
description = "inet_TCP <---> inet_TCP"
# setting TCP stack implementation
**.server*.tcp.typename = "Tcp"
**.client*.tcp.typename = "Tcp"

[Config nsc_nsc]
description = "NSC_TCP <---> NSC_TCP"
# setting TCP stack implementation
**.tcp.typename = "TcpNsc"

[Config nsc_inet]
description = "NSC_TCP <---> inet_TCP"
# setting TCP stack implementation
**.server*.tcp.typename = "TcpNsc"
**.client*.tcp.typename = "Tcp"

[Config inet_nsc]
description = "inet_TCP <---> NSC_TCP"
# setting TCP stack implementation
**.server*.tcp.typename = "Tcp"
**.client*.tcp.typename = "TcpNsc"

[Config lwip__lwip]
description = "TcpLwip <---> TcpLwip"
# setting TCP stack implementation
**.server*.tcp.typename = "TcpLwip"
**.client*.tcp.typename = "TcpLwip"

[Config lwip__inet]
description = "TcpLwip <---> inet_TCP"
# setting TCP stack implementation
**.server*.tcp.typename = "TcpLwip"
**.client*.tcp.typename = "Tcp"

[Config inet__lwip]
description = "inet_TCP <---> TcpLwip"
# setting TCP stack implementation
**.server*.tcp.typename = "Tcp"
**.client*.tcp.typename = "TcpLwip"


[General]
network = BulkTransfer6
total-stack = 7MiB
tkenv-plugin-path = ../../../etc/plugins
#debug-on-errors = true
#record-eventlog = true
sim-time-limit = 50day

# configurator
*.configurator.useTentativeAddrs = false # FIXME TBD to be switched to true, for testing DAD!

# tcp apps
**.client*.numApps = 1
**.client*.app[*].typename = "TcpSessionApp"
**.client*.app[0].active = true
**.client*.app[0].localAddress = ""
#**.client1.app[0].localAddress = "aaaa:b::8aa:ff:fe00:7" #is this the source addr of the client's TCP app?
#**.client2.app[0].localAddress = "aaaa:b::8aa:ff:fe00:8"
#**.client3.app[0].localAddress = "aaaa:b::8aa:ff:fe00:9"
**.client*.app[0].localPort = -1
**.client*.app[0].connectAddress = "server"
#**.client*.app[0].connectAddress = "aaaa:b::8aa:ff:fe00:1"
**.client*.app[0].connectPort = 1000
**.client*.app[0].tOpen = 5s
**.client*.app[0].tSend = 7s
**.client*.app[0].sendBytes = 1000000B
**.client*.app[0].sendScript = ""
**.client*.app[0].tClose = 0s

**.server.numApps = 1
#**.server.app[*].typename="TcpSinkApp"
**.server.app[*].typename = "TcpEchoApp"
**.server.app[0].localAddress = ""
#**.server.app[0].localAddress = "aaaa:b::8aa:ff:fe00:5"
#**.server.app[0].localAddress = "aaaa:b::8aa:ff:fe00:1"
**.server.app[0].localPort = 1000
**.server.app[0].echoFactor = 2.0
**.server.app[0].echoDelay = 0s

# NIC configuration
**.ppp[*].queue.typename = "DropTailQueue" # in routers
**.ppp[*].queue.frameCapacity = 10  # in routers

**.eth[*].queue.typename = "EtherQosQueue"
**.eth[*].queue.dataQueue.typename = "DropTailQueue" # in routers
**.eth[*].queue.dataQueue.frameCapacity = 10  # in routers
**.eth[*].mac.txrate = 10Mbps
**.eth[*].mac.duplexMode = true

# ezt meg megnezni:
**.*.tcp*.advertisedWindow = 65535


**.router.hasTcp = false
**.router.hasUdp = false

