[General]
sim-time-limit = 5s
seed-set = 0
network = inet.tests.ethernet.TwoHosts

# channel
**.channel.datarate = ${datarate = 500kbps, 5Mbps, 50Mbps, 500Mbps, 5Gbps, 20Gbps, 30Gbps, 50Gbps, 150Gbps, 300Gbps, 500Gbps}
**.channel.delay = 10s/200000000        # cable length is 10m

# MAC
**.eth.mac.allowNonstandardBitrate = true
**.eth.duplexMode = ${duplex = true, false}
**.eth.queue.typename = "DropTailQueue"
**.eth.queue.packetCapacity = 1000

# traffic generator
**.hostA.app.destAddress = "hostB"
**.hostB.app.destAddress = "hostA"
**.app.packetLength = 1000B
**.app.numPacketsPerBurst = 5
**.app.sendInterval = 1s
