[General]
sim-time-limit = 5.2s

network = inet.tests.ethernet.HostsWithHub

#record-eventlog = true
**.vector-recording = false

# channel
**.channel.datarate = ${datarate = 10Mbps, 100Mbps, 1Gbps}
**.channel.delay = 10s/200000000

# MAC
**.csmacdSupport = ${csmacd = true}
**.duplexMode = ${duplex = false}
**.frameBursting = ${burst = true, false}
**.queue.typename = ${queue = "EthernetQosQueue", "DropTailQueue"}
**.queue.dataQueue.typename = "DropTailQueue"
**.queue.dataQueue.packetCapacity = 100000  # external queue
**.queue.packetCapacity = 100000  # internal queue

# traffic generator
**.hostA.app.destAddress = "hostB"
**.hostB.app.destAddress = "hostC"
**.hostC.app.destAddress = "hostA"
**.app.packetLength = select(intuniform(0,2), intWithUnit(uniform(20B,70B)), intWithUnit(uniform(474B,514B)), intWithUnit(uniform(1200B,1497B)))    # max 1497B, 3B requires for LLC header
**.app.numPacketsPerBurst = geometric(1/5)  # mean 5 packets per burst
**.app.sendInterval = 10ms

# reconnect manager
**.scenarioManager.script = xmldoc("ethernet-hub-reconnect.xml")
