[General]
network = ARPTest
#abstract-config = true (requires omnet 7)
sim-time-limit = 500s
cpu-time-limit = 600s
total-stack = 2MiB

[Config ARPTest]
# tcp apps
**.client*.numApps = 1
**.client*.app[*].typename = "TcpSessionApp"
**.client*.app[0].active = true
**.client*.app[0].localAddress = ""
**.client*.app[0].localPort = -1
**.client*.app[0].connectAddress = "server"
**.client*.app[0].connectPort = 1000
**.client*.app[0].tOpen = 1s
**.client*.app[0].tSend = 1.1s
**.client*.app[0].sendBytes = 1MiB
**.client*.app[0].sendScript = ""
**.client*.app[0].tClose = 0s

**.server*.numApps = 1
#**.server*.app[*].typename="TcpSinkApp"
**.server*.app[*].typename = "TcpEchoApp"
**.server*.app[0].localAddress = ""
**.server*.app[0].localPort = 1000
**.server*.app[0].echoFactor = 2.0
**.server*.app[0].echoDelay = 0s

# Ethernet NIC configuration
**.eth[*].queue.typename = "EthernetQosQueue" # in routers
**.eth[*].queue.dataQueue.typename = "DropTailQueue" # in routers
**.eth[*].queue.dataQueue.packetCapacity = 10  # in routers

**.eth[*].duplexMode = true
