[General]
network = ComboExample
#abstract-config = true (requires omnet 6)
sim-time-limit = 90s
record-eventlog = true

*.numHosts = 3


**.arp.typename = "GlobalArp"

**.obstacleLoss.typename = "IdealObstacleLoss"
**.physicalEnvironment.config = xmldoc("obstacle.xml")
**.displayObjects = true
**.physicalLinkVisualizer.displayLinks = true

# playground
*.host[*].mobility.constraintAreaMinX = 0m
*.host[*].mobility.constraintAreaMinY = 0m
*.host[*].mobility.constraintAreaMinZ = 0m
*.host[*].mobility.constraintAreaMaxX = 1000m
*.host[*].mobility.constraintAreaMaxY = 400m
*.host[*].mobility.constraintAreaMaxZ = 0m


# mobility

*.host[*].mobility.typename = "StationaryMobility"
*.host[*].mobility.initFromDisplayString = false
*.host[*].mobility.initialZ = 0m

*.host[0].mobility.initialX = 0m
*.host[0].mobility.initialY = 200m

*.host[1].mobility.initialX = ${hostX=0..800 step 200}m
*.host[1].mobility.initialY = 150m

*.host[2].mobility.initialX = ${otherHostX=10,1000}m
*.host[2].mobility.initialY = 250m

# ping app (host[0] pinged by others)
*.host[0].numApps = 0
*.host[*].numApps = 1
*.host[*].app[*].typename = "PingApp"
*.host[*].app[*].destAddr = "host[0]"
*.host[*].app[*].packetSize = 1024B
*.host[*].app[*].sendInterval = 100ms
*.host[*].app[*].printPing = true

*.host[1].app[*].startTime = 500ms
*.host[2].app[*].startTime = 502ms + (${interference=false,true} ? 0ms : 50ms)
#*.host[2].app[*].startTime = 500ms + ${shift=-8..8 step 2}ms


# nic settings
*.host[*].wlan[*].typename = "AckingWirelessInterface"
*.host[*].wlan[*].bitrate = 2Mbps
*.host[*].wlan[*].mac.headerLength = 23B

[Config AbstractGenericRadio]
#abstract-config = true (requires omnet 6)
*.host[*].wlan[*].radio.typename = "GenericRadio"
*.host[*].wlan[*].radio.transmitter.bitrate = 1Mbps
*.host[*].wlan[*].radio.receiver.energyDetection = -85dBm
*.host[*].wlan[*].radio.receiver.analogModel.defaultSensitivity = -85dBm
*.host[*].wlan[*].radio.*.analogModel.defaultCenterFrequency = 2.412GHz
*.host[*].wlan[*].radio.*.analogModel.defaultBandwidth = 20MHz
*.host[*].wlan[*].radio.*.analogModel.centerFrequency = 2.412GHz
*.host[*].wlan[*].radio.*.analogModel.bandwidth = 20MHz

[Config AbstractApskRadio]
#abstract-config = true (requires omnet 6)
*.host[*].wlan[*].radio.typename = "ApskRadio"
*.host[*].wlan[*].radio.centerFrequency = 2.412GHz
*.host[*].wlan[*].radio.bandwidth = 20MHz
*.host[*].wlan[*].radio.*.centerFrequency = 2.412GHz
*.host[*].wlan[*].radio.*.bandwidth = 20MHz
*.host[*].wlan[*].radio.*.analogModel.defaultCenterFrequency = 2.412GHz
*.host[*].wlan[*].radio.*.analogModel.defaultBandwidth = 20MHz
*.host[*].wlan[*].radio.*.analogModel.centerFrequency = 2.412GHz
*.host[*].wlan[*].radio.*.analogModel.bandwidth = 20MHz
*.host[*].wlan[*].radio.transmitter.bitrate = 1Mbps
*.host[*].wlan[*].radio.transmitter.modulation = "BPSK"
*.host[*].wlan[*].radio.transmitter.preambleDuration = 1us
*.host[*].wlan[*].radio.transmitter.headerLength = 8B
*.host[*].wlan[*].radio.transmitter.power = 10mW
*.host[*].wlan[*].radio.receiver.snirThreshold = 4dB
*.host[*].wlan[*].radio.receiver.energyDetection = -85dBm
*.host[*].wlan[*].radio.receiver.sensitivity = -85dBm

[Config AbstractIeee80211Radio]
#abstract-config = true (requires omnet 6)
*.host[*].wlan[*].radio.typename = "Ieee80211Radio"
*.host[*].wlan[*].radio.transmitter.opMode = "g"
*.host[*].wlan[*].radio.receiver.energyDetection = -85dBm

[Config AbstractUnitDiskAnalogModel]
#abstract-config = true (requires omnet 6)
*.radioMedium.signalAnalogRepresentation = "unitDisk"
*.host[*].wlan[*].radio.signalAnalogRepresentation = "unitDisk"
*.host[*].wlan[*].radio.transmitter.analogModel.communicationRange = 200m
*.host[*].wlan[*].radio.transmitter.analogModel.interferenceRange = 400m
*.host[*].wlan[*].radio.transmitter.analogModel.detectionRange = 600m

[Config AbstractScalarAnalogModel]
#abstract-config = true (requires omnet 6)
*.radioMedium.signalAnalogRepresentation = "scalar"
*.radioMedium.backgroundNoise.power = -90dBm
*.host[*].wlan[*].radio.signalAnalogRepresentation = "scalar"
*.host[*].wlan[*].radio.transmitter.analogModel.power = 10mW
*.host[*].wlan[*].radio.receiver.analogModel.defaultSensitivity = -85dBm

[Config AbstractDimensionalAnalogModel]
#abstract-config = true (requires omnet 6)
*.radioMedium.signalAnalogRepresentation = "dimensional"
*.radioMedium.backgroundNoise.power = -90dBm
*.host[*].wlan[*].radio.signalAnalogRepresentation = "dimensional"
*.host[*].wlan[*].radio.transmitter.analogModel.power = 10mW
#*.host[*].wlan[*].radio.transmitter.analogModel.timeGains = "left s 0dB linear e 0dB right"
#*.host[*].wlan[*].radio.transmitter.analogModel.frequencyGains = "left 0.995GHz -40dB linear 1GHz 0dB linear 1.005GHz -40dB right"
*.host[*].wlan[*].radio.receiver.analogModel.defaultSensitivity = -85dBm

[Config GenericRadioWithUnitDiskAnalogModel]
extends = AbstractGenericRadio, AbstractUnitDiskAnalogModel

[Config GenericRadioWithScalarAnalogModel]
extends = AbstractGenericRadio, AbstractScalarAnalogModel

[Config GenericRadioWithDimensionalAnalogModel]
extends = AbstractGenericRadio, AbstractDimensionalAnalogModel

[Config ApskRadioWithUnitDiskAnalogModel]
extends = AbstractApskRadio, AbstractUnitDiskAnalogModel

[Config ApskRadioWithScalarAnalogModel]
extends = AbstractApskRadio, AbstractScalarAnalogModel

[Config ApskRadioWithDimensionalAnalogModel]
extends = AbstractApskRadio, AbstractDimensionalAnalogModel

[Config Ieee80211RadioWithUnitDiskAnalogModel]
extends = AbstractIeee80211Radio, AbstractUnitDiskAnalogModel

[Config Ieee80211RadioWithScalarAnalogModel]
extends = AbstractIeee80211Radio, AbstractScalarAnalogModel

[Config Ieee80211RadioWithDimensionalAnalogModel]
extends = AbstractIeee80211Radio, AbstractDimensionalAnalogModel

