[General]
sim-time-limit = 1s
**.vector-recording = false
network = inet.tests.ethernet.TwoHosts

# channel
**.channel.datarate = ${datarate = 10Mbps, 100Mbps, 1Gbps, 10Gbps, 40Gbps, 100Gbps}
**.channel.delay = 10s/200000000        # cable length is 10m

# MAC
**.csmacdSupport = ${csmacd = true, false}
**.duplexMode = ${duplex=true}
**.frameBursting = false
**.queueType = ${queue = firstAvailable("EthDropTailQoSQueue","DropTailQueue"), ""}
**.queue.frameCapacity = 100000  # external queue
**.txQueueLimit = 100000  # internal queue

# traffic generator
**.hostA.app.destAddress = "hostB"
**.hostB.app.destAddress = "hostA"
**.app.packetLength = ${46B,1500B}
**.app.numPacketsPerBurst = 10000
**.app.startTime = 0s
**.app.stopTime = 0s
**.app.sendInterval = 100000s

**.datarate.param-record-as-scalar = true
**.duplexMode.param-record-as-scalar = true
**.packetLength.param-record-as-scalar = true

# conditions
constraint = (${csmacd}==true && ${datarate} <= 1Gbps) || ${duplex}==true  # EtherMACFullDuplex does not support half-duplex operation, half-duplex works only on 1Gbps and slower
