#
# Copyright (C) 2012 Kyeong Soo (Joseph) Kim. All rights reserved.
#
# This ini file is for a test of FTP appllications.
#

[General]
total-stack = 32MiB
network = inet.examples.traffic_engineering.isp_traffic_shaping2.testFtpApps
tkenv-plugin-path = ../../../etc/plugins
#cmdenv-status-frequency = 10s  # default is 2s

#debug-on-errors = true
sim-time-limit = 1h
warmup-period = 0.1h	# depends on 'startTime' of applications
repeat = 1

# results recording
result-dir = results/test/ftpApps
**.scalar-recording = true
**.vector-recording = false

*.n = ${n=2}	# number of hosts

########################################################################
### TCP parameters
########################################################################
**.tcp.sendQueueClass = "TCPMsgBasedSendQueue"
**.tcp.receiveQueueClass = "TCPMsgBasedRcvQueue"
**.tcp.mss = 1460	# optimal for Ethernet interface whose MTU is 1500 bytes

########################################################################
### NIC (of server, hosts, and Ethernet switches)
########################################################################
**.frameCapacity = 10000	# in frames; based on RTT(10ms)*BW(10G) (default is 100)
**.txQueueLimit = 10000		# in frames; based on RTT(10ms)*BW(10G) (default is 100)

########################################################################
### Server settings
########################################################################
**.server.numHttpSrvs = 0
**.server.numVideoSrvs = 0
###
### FTP
###
**.server.numFtpSrvs = 1
**.server.ftpSrvType = "TCPGenericSrvApp"
**.server.ftpSrv[*].address = ""
 **.server.ftpSrv[*].port = 20
**.server.ftpSrv[*].replyDelay = 0

########################################################################
### Host (user)
########################################################################
**.host[*].numHttpApps = 0
**.host[*].numVideoApps = 0
###
### FTP
###
**.host[*].numFtpApps = 1
**.host[*].ftpApp[*].address = ""
**.host[*].ftpApp[*].connectAddress = "server"
**.host[*].ftpApp[*].connectPort = 20
**.host[*].ftpApp[*].startTime = uniform(1s, 5s)
**.host[*].ftpApp[*].requestLength = uniform(0B, 700B)
**.host[*].ftpApp[*].idleInterval = exponential(166.667s)  # time gap between sessions ("Reading Time" in [3])
**.host[*].ftpApp[*].reconnectInterval = 30s


[Config FtpClient]
**.host[*].ftpAppType = "FtpClientApp"
#**.host[*].ftpApp[*].fileSize = trunc_lognormal(14.45B, 0.35B, 0B, 5e6B)
**.host[*].ftpApp[*].fileSize = 10GiB

[Config HttpClient]
**.host[*].ftpAppType = "HttpClientApp"  # use HTTP cleint module now
#**.host[*].ftpApp[*].htmlObjectLength = trunc_lognormal(14.45B, 0.35B, 0B, 5e6B)  # "file size" to download
**.host[*].ftpApp[*].htmlObjectLength = 1GiB
**.host[*].ftpApp[*].numEmbeddedObjects = 0
**.host[*].ftpApp[*].embeddedObjectLength = 0B
**.host[*].ftpApp[*].parsingTime = 0s  # no parsimg time for FTP
**.host[*].ftpApp[*].thinkTime = 0s  # no time gap between requests for FTP
