#
# To try: ../Ethernet -f mixed.ini
#

[General]
preload-ned-files = ../*.ned @../../../nedfiles.lst
ini-warnings = no
random-seed = 1
sim-time-limit = 120s

[Cmdenv]
express-mode = true

[Tkenv]
#default-run = 1

[OutVectors]
**.enabled = no

[Run 1]
network=mixedLAN
**.cli.destStation = "switchHostA"
**.cli.waitTime = exponential(1)

include defaults.ini
