#
# To try: ./LANs -f TwoHosts.ini
#

[General]
sim-time-limit = 10s

tkenv-plugin-path = ../../../etc/plugins
**.vector-recording = true
#record-eventlog = true


[Config TwoHosts1]
network = SpeedTest
*.Hosts100F.hostA.cli.destAddress = "Hosts100F.hostB"
*.Hosts100F.hostB.cli.destAddress = "Hosts100F.hostA"

*.Hosts100H.hostA.cli.destAddress = "Hosts100H.hostB"
*.Hosts100H.hostB.cli.destAddress = "Hosts100H.hostA"

*.Hosts10F.hostA.cli.destAddress = "Hosts10F.hostB"
*.Hosts10F.hostB.cli.destAddress = "Hosts10F.hostA"

*.Hosts10H.hostA.cli.destAddress = "Hosts10H.hostB"
*.Hosts10H.hostB.cli.destAddress = "Hosts10H.hostA"


**.cli.reqLength = 1250B       # 10.000 bit
**.cli.respLength = 1250B      # 10.000 bit
**.hostB.cli.waitTime = 10000s
**.hostB.cli.startTime = 10000s

*.Hosts*F.*.mac.duplexEnabled = true
*.Hosts*H.*.mac.duplexEnabled = false

*.Hosts100F.hostA.cli.waitTime = 0.102ms        # 10.000 / speed [ / 2 when halfduplex]
*.Hosts100H.hostA.cli.waitTime = 0.208ms        # 10.000 / speed [ / 2 when halfduplex]
*.Hosts10F.hostA.cli.waitTime = 1ms        # 10.000 / speed [ / 2 when halfduplex]
*.Hosts10H.hostA.cli.waitTime = 2ms        # 10.000 / speed [ / 2 when halfduplex]

**.hostA.cli.startTime = 0.1s

include defaults.ini

# Check: "rx channel idle (%)" <= 5.0
# Check: "rx channel utilization (%)" >= 95.0
