[General]
network = PeekingUnderTheHoodShowcase
sim-time-limit = 1s
description = "Traffic shaping several packet sources directly"

*.numSources = 3
*.source[*].packetLength = 1000B
*.source[*].productionInterval = exponential(0.5ms)

*.meter[*].committedInformationRate = 8Mbps
*.meter[*].committedBurstSize = 10kB
*.meter[*].maxResidenceTime = 10ms

*.server.processingTime = 0.1ms
