[General]
network = PeekingUnderTheHoodShowcase
sim-time-limit = 10s
description = "Traffic shaping several packet sources directly"

*.numSources = 3
*.source[*].packetLength = 1000B
*.source[0].productionInterval = replaceUnit(sin(dropUnit(simTime() * 2)) + 5, "ms") / 10
*.source[1].productionInterval = replaceUnit(sin(dropUnit(simTime() * 3)) + 5, "ms") / 10
*.source[2].productionInterval = replaceUnit(sin(dropUnit(simTime() * 1)) + sin(dropUnit(simTime() * 8)) + 5, "ms") / 10

*.meter[*].committedInformationRate = 16Mbps
*.meter[*].committedBurstSize = 10kB
*.meter[*].maxResidenceTime = 10ms

*.server.processingTime = 0.1ms
*.classifier.packetFilters = ["source[0]*", "source[1]*", "source[2]*"]
