[General]
sim-time-limit = 500s
network = multiple_areas2

**.Host*.hasIpv6 = true

**.Router1.ospf.ospfv3Splitter.ospfv3RoutingConfig = xmldoc("config.xml", "Devices/Router[@id='R1']/Routing6/OSPFv3")
**.Router2.ospf.ospfv3Splitter.ospfv3RoutingConfig = xmldoc("config.xml", "Devices/Router[@id='R2']/Routing6/OSPFv3")
**.Router3.ospf.ospfv3Splitter.ospfv3RoutingConfig = xmldoc("config.xml", "Devices/Router[@id='R3']/Routing6/OSPFv3")
**.Router4.ospf.ospfv3Splitter.ospfv3RoutingConfig = xmldoc("config.xml", "Devices/Router[@id='R4']/Routing6/OSPFv3")
**.Router5.ospf.ospfv3Splitter.ospfv3RoutingConfig = xmldoc("config.xml", "Devices/Router[@id='R5']/Routing6/OSPFv3")
**.Router6.ospf.ospfv3Splitter.ospfv3RoutingConfig = xmldoc("config.xml", "Devices/Router[@id='R6']/Routing6/OSPFv3")
**.Router7.ospf.ospfv3Splitter.ospfv3RoutingConfig = xmldoc("config.xml", "Devices/Router[@id='R7']/Routing6/OSPFv3")
**.Router8.ospf.ospfv3Splitter.ospfv3RoutingConfig = xmldoc("config.xml", "Devices/Router[@id='R8']/Routing6/OSPFv3")
**.Router9.ospf.ospfv3Splitter.ospfv3RoutingConfig = xmldoc("config.xml", "Devices/Router[@id='R9']/Routing6/OSPFv3")
**.Router10.ospf.ospfv3Splitter.ospfv3RoutingConfig = xmldoc("config.xml", "Devices/Router[@id='R10']/Routing6/OSPFv3")

**.Router1.ospf.ospfv3Splitter.ospfv3IntConfig = xmldoc("config.xml", "Devices/Router[@id='R1']/Interfaces")
**.Router2.ospf.ospfv3Splitter.ospfv3IntConfig = xmldoc("config.xml", "Devices/Router[@id='R2']/Interfaces")
**.Router3.ospf.ospfv3Splitter.ospfv3IntConfig = xmldoc("config.xml", "Devices/Router[@id='R3']/Interfaces")
**.Router4.ospf.ospfv3Splitter.ospfv3IntConfig = xmldoc("config.xml", "Devices/Router[@id='R4']/Interfaces")
**.Router5.ospf.ospfv3Splitter.ospfv3IntConfig = xmldoc("config.xml", "Devices/Router[@id='R5']/Interfaces")
**.Router6.ospf.ospfv3Splitter.ospfv3IntConfig = xmldoc("config.xml", "Devices/Router[@id='R6']/Interfaces")
**.Router7.ospf.ospfv3Splitter.ospfv3IntConfig = xmldoc("config.xml", "Devices/Router[@id='R7']/Interfaces")
**.Router8.ospf.ospfv3Splitter.ospfv3IntConfig = xmldoc("config.xml", "Devices/Router[@id='R8']/Interfaces")
**.Router9.ospf.ospfv3Splitter.ospfv3IntConfig = xmldoc("config.xml", "Devices/Router[@id='R9']/Interfaces")
**.Router10.ospf.ospfv3Splitter.ospfv3IntConfig = xmldoc("config.xml", "Devices/Router[@id='R10']/Interfaces")

**.Router1.configData = xmldoc("config.xml", "Devices/Router[@id='R1']/")
**.Router2.configData = xmldoc("config.xml", "Devices/Router[@id='R2']/")
**.Router3.configData = xmldoc("config.xml", "Devices/Router[@id='R3']/")
**.Router4.configData = xmldoc("config.xml", "Devices/Router[@id='R4']/")
**.Router5.configData = xmldoc("config.xml", "Devices/Router[@id='R5']/")
**.Router6.configData = xmldoc("config.xml", "Devices/Router[@id='R6']/")
**.Router7.configData = xmldoc("config.xml", "Devices/Router[@id='R7']/")
**.Router8.configData = xmldoc("config.xml", "Devices/Router[@id='R8']/")
**.Router9.configData = xmldoc("config.xml", "Devices/Router[@id='R9']/")
**.Router10.configData = xmldoc("config.xml", "Devices/Router[@id='R10']/")



[Config LinkDown]
**.scenarioManager.script = xmldoc("scenario.xml")

[Config LinkDownLinkUp]
**.scenarioManager.script = xmldoc("scenario2.xml")