[General]
network = TimingExample
sim-time-limit = 5s

**.crcMode = "computed"
**.fcsMode = "computed"
**.arp.typename = "GlobalArp"

*.macForwardingTableConfigurator.typename = ""
*.*.ethernet.typename = "EthernetLayer"

*.client*.numApps = 2
*.client*.app[*].typename = "UdpApp"
*.client*.app[0].source.packetNameFormat = "background-%c"
*.client*.app[1].source.packetNameFormat = "video-%c"
*.client*.app[0].io.destAddress = "server1"
*.client*.app[1].io.destAddress = "server2"
*.client*.app[*].io.destPort = 1000

# background ~40Mbps
*.client*.app[0].source.packetLength = 1000B
*.client*.app[0].source.productionInterval = truncnormal(200us,100us)

# video ~2Mbps
*.client*.app[1].source.packetLength = 500B
*.client*.app[1].source.productionInterval = truncnormal(2ms,1ms)

# server*
*.server*.numApps = 1
*.server*.app[0].typename = "UdpApp"
*.server*.app[0].source.typename = "EmptyPacketSource"
*.server*.app[0].io.destPort = -1
*.server*.app[0].io.localPort = 1000

# interface
*.*.eth[*].typename = "LayeredEthernetInterface"
*.*.eth[*].bitrate = 100Mbps
*.switch*.eth[*].measurementLayer.typename = "MeasurementLayer"
*.switch1.eth[*].measurementLayer.measurementRecorder.typename = ""
*.switch2.eth[*].measurementLayer.measurementStarter.typename = ""
*.*.eth[*].phyLayer.*Emitter.typename = ""
*.*.eth[*].macLayer.server.serveSchedulingPriority = -1

# timing measurement
*.client1.app[*].measurementStarter.typename = "FlowMeasurementStarter"
*.client1.app[*].measurementStarter.flowName = "client1"
*.client1.app[*].measurementStarter.measure = "elapsedTime or queueingTime"
*.client2.app[*].measurementStarter.typename = "FlowMeasurementStarter"
*.client2.app[*].measurementStarter.flowName = "client2"
*.client2.app[*].measurementStarter.measure = "elapsedTime or queueingTime"
*.server1.app[*].measurementRecorder.typename = "FlowMeasurementRecorder"
*.server1.app[*].measurementRecorder.flowName = "client1 or client2"
*.server1.app[*].measurementRecorder.measure = "elapsedTime or queueingTime"
*.server2.app[*].measurementRecorder.typename = "FlowMeasurementRecorder"
*.server2.app[*].measurementRecorder.flowName = "client1 or client2"
*.server2.app[*].measurementRecorder.measure = "elapsedTime or queueingTime"
*.switch1.eth[*].measurementLayer.measurementStarter.flowName = "switch1"
*.switch1.eth[*].measurementLayer.measurementStarter.measure = "elapsedTime or queueingTime"
*.switch2.eth[*].measurementLayer.measurementRecorder.flowName = "switch1"
*.switch2.eth[*].measurementLayer.measurementRecorder.measure = "elapsedTime or queueingTime"

# visualizer
*.visualizer.packetFlowVisualizer.displayRoutes = true
