[General]
scheduler-class = "inet::RealTimeScheduler"
sim-time-limit = 3600s
cmdenv-express-mode = false

**.crcMode = "computed"
**.fcsMode = "computed"

[Config ExtUpperEthernetInterfaceInSender]
network = NoExtHostsEthernetShowcase
description = "real ping application in sender sends ping requests to receiver using ExtUpperEthernetInterface in sender"

*.configurator.config = xml("<config><interface hosts='receiver' names='eth0' address='192.168.2.2' netmask='255.255.255.0'/></config>")

*.sender.eth[0].typename = "ExtUpperEthernetInterface"
*.sender.eth[0].device = "tap0"
*.sender.eth[0].copyConfiguration = "copyFromExt"

[Config ExtLowerEthernetInterfaceInReceiver]
network = ExtSenderEthernetShowcase
description = "real ping application in sender sends ping requests to receiver using ExtLowerEthernetInterface in receiver"

*.configurator.config = xml("<config><interface hosts='receiver' names='eth0' address='192.168.2.2' netmask='255.255.255.0'/></config>")

*.receiver.numEthInterfaces = 1
*.receiver.eth[0].typename = "ExtLowerEthernetInterface"
*.receiver.eth[0].device = "veth1"
*.receiver.eth[0].copyConfiguration = "copyFromExt"

[Config ExtLowerEthernetInterfaceInSender]
network = ExtReceiverEthernetShowcase
description = "simulated ping application in sender sends ping requests to receiver using ExtLowerEthernetInterface in sender"

*.configurator.config = xml("<config><interface hosts='sender' names='eth0' address='192.168.2.1' netmask='255.255.255.0'/></config>")

*.sender.numApps = 1
*.sender.app[0].typename = "PingApp"
*.sender.app[0].destAddr = "192.168.2.2"
*.sender.app[0].printPing = true

*.sender.numEthInterfaces = 1
*.sender.eth[0].typename = "ExtLowerEthernetInterface"
*.sender.eth[0].device = "veth0"

[Config ExtUpperEthernetInterfaceInReceiver]
network = NoExtHostsEthernetShowcase
description = "simulated ping application in sender sends ping requests to receiver using ExtUpperEthernetInterface in receiver"

*.configurator.config = xml("<config><interface hosts='sender' names='eth0' address='192.168.2.1' netmask='255.255.255.0'/></config>")

*.sender.numApps = 1
*.sender.app[0].typename = "PingApp"
*.sender.app[0].destAddr = "192.168.2.2"
*.sender.app[0].printPing = true

*.receiver.eth[0].typename = "ExtUpperEthernetInterface"
*.receiver.eth[0].device = "tap0"
*.receiver.eth[0].copyConfiguration = "copyFromExt"

[Config ExtUpperIeee80211InterfaceInSender]
network = NoExtHostsIeee80211Showcase
description = "real ping application in sender sends ping requests to receiver using ExtUpperIeee80211Interface in sender"

*.configurator.config = xml("<config><interface hosts='receiver' names='wlan0' address='192.168.2.2' netmask='255.255.255.0'/></config>")

*.sender.wlan[0].typename = "ExtUpperIeee80211Interface"
*.sender.wlan[0].device = "tap0"
*.sender.wlan[0].copyConfiguration = "copyFromExt"

[Config ExtUpperIeee80211InterfaceInReceiver]
network = NoExtHostsIeee80211Showcase
description = "simulated ping application in sender sends ping requests to receiver using ExtUpperIeee80211Interface in receiver"

*.configurator.config = xml("<config><interface hosts='sender' names='wlan0' address='192.168.2.1' netmask='255.255.255.0'/></config>")

*.sender.numApps = 1
*.sender.app[0].typename = "PingApp"
*.sender.app[0].destAddr = "192.168.2.2"
*.sender.app[0].printPing = true

*.receiver.wlan[0].typename = "ExtUpperIeee80211Interface"
*.receiver.wlan[0].device = "tap0"
*.receiver.wlan[0].copyConfiguration = "copyFromExt"

[Config ExtLowerUdpInReceiver]
network = ExtSenderEthernetShowcase
description = "real UDP application in sender sends packets to simulated UDP application receiver using ExtLowerUdp in receiver"

*.receiver.udp.typename = "ExtLowerUdp"

*.receiver.numApps = 1
*.receiver.app[0].typename = "UdpEchoApp"

[Config ExtLowerUdpInSender]
network = ExtReceiverEthernetShowcase
description = "simulated UDP application in sender sends packets to real UDP application in receiver using ExtLowerUdp in sender"

*.sender.udp.typename = "ExtLowerUdp"

*.sender.numApps = 1
*.sender.app[0].typename = "UdpBasicApp"

[Config ExtUpperIpv4NetworkLayerInSender]
network = NoExtHostsEthernetShowcase
description = "real ping application in sender sends ping requests to receiver using ExtUpperIpv4NetworkLayer in sender"

[Config ExtLowerIpv4NetworkLayerInReceiver]
network = ExtSenderEthernetShowcase
description = "real ping application in sender sends ping requests to receiver using ExtLowerIpv4NetworkLayer in receiver"

[Config ExtLowerIpv4NetworkLayerInSender]
network = ExtReceiverEthernetShowcase
description = "simulated ping application in sender sends ping requests to receiver using ExtLowerIpv4NetworkLayer in sender"

*.sender.ipv4.typename = "ExtLowerIpv4NetworkLayer"

*.sender.numApps = 1
*.sender.app[0].typename = "PingApp"
*.sender.app[0].destAddr = "192.168.2.2"
*.sender.app[0].printPing = true

[Config ExtUpperIpv4NetworkLayerInReceiver]
network = NoExtHostsEthernetShowcase
description = "simulated ping application in sender sends ping requests to receiver using ExtUpperIpv4NetworkLayer in receiver"

*.configurator.config = xml("<config><interface hosts='sender' names='eth0' address='192.168.2.1' netmask='255.255.255.0'/><interface hosts='receiver' names='eth0' address='192.168.2.2' netmask='255.255.255.0'/></config>")

*.sender.numApps = 1
*.sender.app[0].typename = "PingApp"
*.sender.app[0].destAddr = "192.168.2.2"
*.sender.app[0].printPing = true

*.receiver.ipv4.typename = "ExtUpperIpv4NetworkLayer"
*.receiver.ipv4.ip.tun.device = "tun0"

[Config NoExtHostsEthernetShowcase]
network = NoExtHostsEthernetShowcase
description = "simulated ping application in sender sends ping requests to receiver"

[Config NoExtHostsIeee80211Showcase]
network = NoExtHostsIeee80211Showcase
description = "simulated ping application in sender sends ping requests to receiver"
