#
# Proxy Mobile IPv6 (RFC 5213) example: a single mobile node -- a plain wireless
# IPv6 host running NO mobility software -- attaches under mag1 and then roams to
# mag2. Each Mobile Access Gateway detects the attachment at the link layer,
# registers the node with the Local Mobility Anchor on its behalf (Proxy Binding
# Update / Acknowledgement), tunnels the node's traffic to/from the anchor, and
# advertises the node's home network prefix on the access link. The node keeps the
# same address across the handover; a correspondent node's traffic follows it.
#

[General]
network = Pmipv6Network
seed-set = 1
num-rngs = 3
**.mobility.rng-0 = 2   # give the mobility its own RNG, isolated from the wireless MAC
sim-time-limit = 60s

# --- PMIPv6 configuration ---------------------------------------------------
# Both MAGs serve the same mobile node (same identifier and home network prefix),
# so the node keeps its address when it moves from one to the other. Each MAG
# registers with the LMA via the LMA's address on its own backhaul link.
*.mag1.ipv6.pmipv6.localMobilityAnchorAddress = "2001:db8:0:1::1"
*.mag2.ipv6.pmipv6.localMobilityAnchorAddress = "2001:db8:0:2::1"
*.mag*.ipv6.pmipv6.mobileNodeProfiles = xml("<mobileNodes><mobileNode id='mn1@example.com' homeNetworkPrefix='2001:db8:1::' prefixLength='64'/></mobileNodes>")

# --- wireless access links --------------------------------------------------
*.mag*.numWlanInterfaces = 1
*.mn.numWlanInterfaces = 1

# MAG access points: SSIDs, fixed MAC addresses, one channel each
**.mag*.wlan*.mgmt.beaconInterval = 0.1s
*.mag1.wlan*.mgmt.ssid = "MAG1"
*.mag1.wlan*.address = "10:AA:00:00:01:01"
*.mag1.wlan*.radio.channelNumber = 0
*.mag2.wlan*.mgmt.ssid = "MAG2"
*.mag2.wlan*.address = "10:AA:00:00:02:01"
*.mag2.wlan*.radio.channelNumber = 1

# Mobile node: a known MAC so its home address is deterministic
# (home prefix 2001:db8:1::/64 + EUI-64 of 0A:AA:00:00:00:0B).
*.mn.wlan*.address = "0A:AA:00:00:00:0B"
*.mn.wlan*.agent.channelsToScan = "0 1"
*.mn.wlan*.agent.probeDelay = 0.1s
*.mn.wlan*.agent.minChannelTime = 0.15s
*.mn.wlan*.agent.maxChannelTime = 0.3s
*.mn.wlan*.agent.authenticationTimeout = 5s
*.mn.wlan*.agent.associationTimeout = 5s

**.mgmt.numChannels = 5
**.wlan*.bitrate = 2Mbps
**.wlan*.mac.dcf.channelAccess.cwMin = 7

# wireless channel physical parameters
*.radioMedium.mediumLimitCache.maxTransmissionPower = 2.0mW
*.radioMedium.mediumLimitCache.minReceptionPower = -82dBm
*.radioMedium.mediumLimitCache.minInterferencePower = -82dBm
**.radio.transmitter.power = 2.0mW
**.analogModel.ignorePartialInterference = true

# quick movement detection: short RA intervals + L2-triggered router discovery
**.neighbourDiscovery.minIntervalBetweenRAs = 1s
**.neighbourDiscovery.maxIntervalBetweenRAs = 3s

# --- mobility ---------------------------------------------------------------
*.mag1.mobility.typename = "StationaryMobility"
*.mag1.mobility.initialX = 250m
*.mag1.mobility.initialY = 260m
*.mag2.mobility.typename = "StationaryMobility"
*.mag2.mobility.initialX = 550m
*.mag2.mobility.initialY = 260m
*.mn.mobility.typename = "TurtleMobility"
*.mn.mobility.turtleScript = xmldoc("movement.xml")
*.mn.mobility.updateInterval = 0.1s
**.mobility.constraintAreaMinZ = 0m
**.mobility.constraintAreaMaxZ = 0m
**.constraintAreaMinX = 0m
**.constraintAreaMinY = 0m
**.constraintAreaMaxX = 800m
**.constraintAreaMaxY = 500m

# --- applications -----------------------------------------------------------
# The correspondent node pings the mobile node's stable home address throughout
# the simulation; the echo replies follow the node across the handover, showing
# session continuity. The destination is the deterministic home address
# (home prefix + the mobile node's EUI-64 interface id).
*.cn.numApps = 1
*.cn.app[0].typename = "PingApp"
*.cn.app[0].destAddr = "2001:db8:1:0:8aa:ff:fe00:b"
*.cn.app[0].packetSize = 56B
*.cn.app[0].sendInterval = 0.5s
*.cn.app[0].startTime = 8s
*.cn.app[0].hopLimit = 32

# hosts do not forward; the LMA and MAGs forward by virtue of their NED type
*.cn.forwarding = false
*.mn.forwarding = false

# Ethernet queues
**.eth[*].queue.typename = "EthernetQosQueue"
**.eth[*].queue.dataQueue.typename = "DropTailQueue"
**.eth[*].queue.dataQueue.packetCapacity = 100
