[General]
# wireless interface
**.wlan[*].typename = "WirelessInterface"
**.wlan[*].radio.typename = "ApskScalarRadio"

# misc
**.arp.typename = "GlobalArp"
*.gateway.forwarding = true

# configurator
*.configurator.addStaticRoutes = false
*.configurator.config = xmldoc("config.xml")

# radio and radioMedium
**.radio.centerFrequency = 2.45GHz
**.radio.bandwidth = 2.8MHz

**.radio.transmitter.bitrate = 19200 bps
**.radio.transmitter.headerLength = 8b
**.radio.transmitter.preambleDuration = 0.0001s
**.radio.transmitter.power = 2.24mW

**.radio.receiver.energyDetection = -90dBm
**.radio.receiver.sensitivity = -100dBm
**.radio.receiver.snirThreshold = -8dB

*.radioMedium.backgroundNoise.power = -110dBm

**.mac.headerLength = 8b

# app
*.sensor*.numApps = 1
*.sensor*.app[0].typename = "UdpBasicApp"
*.sensor*.app[0].destAddresses = "server"
*.sensor*.app[0].destPort = 1000
*.sensor*.app[0].sendInterval = 1s
*.sensor*.app[0].startTime = exponential(1s)
*.sensor*.app[0].messageLength = 10Byte

*.server.numApps = 1
*.server.app[0].typename = "UdpSink"
*.server.app[0].localPort = 1000

# visualizer
*.visualizer.*.routingTableVisualizer.displayRoutingTables = false
*.visualizer.*.routingTableVisualizer.displayRoutesIndividually = false
*.visualizer.*.routingTableVisualizer.lineShift = 0
*.visualizer.*.routingTableVisualizer.displayLabels = false

*.visualizer.*.infoVisualizer.modules = "*.server.app[0]"
*.visualizer.*.infoVisualizer.format = "%t"

*.visualizer.*.networkRouteVisualizer.displayRoutes = true

*.visualizer.*.physicalLinkVisualizer.displayLinks = true

[Config BMac]
network = SensorNetworkShowcaseA

**.wlan[*].mac.typename = "BMac"
**.wlan[*].mac.headerLength = 16B
**.wlan[*].mac.slotDuration = 0.025s

[Config XMac]
network = SensorNetworkShowcaseA

**.wlan[*].mac.typename = "XMac"
**.wlan[*].mac.headerLength = 24B
*.gateway.wlan[*].mac.slotDuration = 0.1s
*.sensor*.wlan[*].mac.slotDuration = 0.25s

[Config LMac]
network = SensorNetworkShowcaseA

**.wlan[*].mac.typename = "LMac"
**.mac.slotDuration = 50ms
**.mac.numSlots = 8
**.mac.reservedMobileSlots = 0

[Config StatisticBase]
network = SensorNetworkShowcaseB
**.vector-recording = false
sim-time-limit = 100s
repeat = 10

[Config StatisticBMac]
extends = StatisticBase

**.wlan[*].mac.typename = "BMac"
**.wlan[*].mac.headerLength = 16B
**.wlan[*].mac.slotDuration = ${slotDuration=0.01..1 step 0.01}s

[Config StatisticXMac]
extends = StatisticBase

**.wlan[*].mac.typename = "XMac"
**.wlan[*].mac.headerLength = 24B
*.gateway.wlan[*].mac.slotDuration = ${gwSlotDuration=0.01..1 step 0.01}s
*.sensor*.wlan[*].mac.slotDuration = ${snSlotDuration=2.5*$gwSlotDuration}s

[Config StatisticLMac]
extends = StatisticBase

**.wlan[*].mac.typename = "LMac"
**.mac.slotDuration = ${slotDuration=0.01..1 step 0.01}s
**.mac.numSlots = 8
**.mac.reservedMobileSlots = 0

