[General]
network = QosThroughput
#cmdenv-output-file = omnetpp.log
#cmdenv-express-mode = false
#debug-on-errors = true
tkenv-plugin-path = ../../../etc/plugins
#record-eventlog = true

sim-time-limit = 5s


**.arpType = "GlobalARP"

**.constraintAreaMinX = 0m
**.constraintAreaMinY = 0m
**.constraintAreaMinZ = 0m
**.constraintAreaMaxX = 400m
**.constraintAreaMaxY = 400m
**.constraintAreaMaxZ = 0m

**.mobility.initFromDisplayString = false
**.cliHost.mobility.initialX = 100m
**.cliHost.mobility.initialY = 100m
**.srvHost.mobility.initialX = 300m
**.srvHost.mobility.initialY = 100m
**.mobility.initialZ = 0m

# radio settings
**.radio.transmitter.power = 1000mW

# cli
**.cliHost.numApps = 5
**.cliHost.app[*].typename = "UDPBasicApp"
**.cliHost.app[*].destAddresses = "srvHost"
**.cliHost.app[0].destPort = 21
**.cliHost.app[1].destPort = 80
**.cliHost.app[2].destPort = 4000
**.cliHost.app[3].destPort = 5000
**.cliHost.app[4].destPort = 99
**.cliHost.app[0].packetName = "FTP"
**.cliHost.app[1].packetName = "WWW"
**.cliHost.app[2].packetName = "Video"
**.cliHost.app[3].packetName = "Voice"
**.cliHost.app[4].packetName = "nonQos"
**.cliHost.app[*].startTime = 0.5s
**.cliHost.app[*].stopTime = 5.0s
**.cliHost.app[*].messageLength = 1000B
**.cliHost.app[*].sendInterval = 0.0001s

# srv
**.srvHost.numApps = 5
**.srvHost.app[*].typename = "UDPSink"
**.srvHost.app[0].localPort = 21
**.srvHost.app[1].localPort = 80
**.srvHost.app[2].localPort = 4000
**.srvHost.app[3].localPort = 5000
**.srvHost.app[4].localPort = 99


[Config oldMacBase]
**.wlan[*].macType = "Ieee80211OldMac"
**.mac.maxQueueSize = 0
**.mac.TXOP2 = 0
**.mac.TXOP3 = 0

[Config MacBase]
**.wlan[*].macType = "Ieee80211CompatibleMac"
**.mac.maxQueueSize = 0
**.mac.ctrl.typename = ${"OptimizedCollisionController","CollisionController"}
#**.mac.ctn[*].backoffOptimization = false

[Config oldMacNonQos]
extends = oldMacBase

[Config MacNonQos]
extends = MacBase

[Config Edca]
**.wlan[*].classifierType = "ExampleQoSClassifier"
**.mac.EDCA = true

[Config oldMacQos]
extends = oldMacBase, Edca

[Config MacQos]
extends = MacBase, Edca
