include omnetpp.ini

[Config Ping1]
sim-time-limit = 100s
fingerprint = "99c7-3d66"
