include omnetpp.ini

[Run 1]
sim-time-limit = 100s
fingerprint = "eaed-6ca5"