include omnetpp.ini

[Config Ping1]
sim-time-limit = 100s
fingerprint = "eaed-6ca5"
