[General]
network = BgpIpv6Basic
sim-time-limit = 200s

**.ipv6.configurator.networkConfiguratorModule = "configurator"

# both routers run BGP over IPv6 (IPv6-only)
*.r*.hasBgp = true
*.r*.hasIpv6 = true
*.r*.hasIpv4 = false
*.r*.bgp.addressFamily = "ipv6"
*.r*.bgp.routingTableModule = "^.ipv6.routingTable"
*.r*.bgp.bgpConfig = xmldoc("BgpConfig6.xml")
*.rA.bgp.routerId = "1.1.1.1"
*.rB.bgp.routerId = "2.2.2.2"
