include omnetpp.ini

[Run 1]
sim-time-limit = 100s
fingerprint = "045b-3e0f"