[General]
network = StatisticBarsExample
sim-time-limit = 10s
*.visualizer.statisticVisualizer.displayStatistics = true
*.visualizer.statisticVisualizer.displayMode = "bars"
# The Packets/Throughput/Flow configs use a fixed maxValue; the matching
# *Autoscale configs leave maxValue unset, so each bar chart scales to its own
# current maximum instead.

# ==========================================================================
# Sources mode: three UDP streams (fast/medium/slow) from the server to three
# separate sink apps on the receiver. barSeries="sources" draws one bar per
# sink app, grouped above the receiver; the value is the statisticExpression
# (count or throughput) of each app's packetReceived signal.
# ==========================================================================
[Config Sources]
abstract = true
*.server.numApps = 3
*.server.app[*].typename = "UdpBasicApp"
*.server.app[*].destAddresses = "receiver"
*.server.app[*].messageLength = 1000B
*.server.app[0].destPort = 1000
*.server.app[1].destPort = 1001
*.server.app[2].destPort = 1002
*.server.app[0].sendInterval = 10ms  # fast stream
*.server.app[1].sendInterval = 25ms  # medium stream
*.server.app[2].sendInterval = 60ms  # slow stream
*.server.app[*].startTime = uniform(0s, 10ms)

*.receiver.numApps = 3
*.receiver.app[*].typename = "UdpSink"
*.receiver.app[0].localPort = 1000
*.receiver.app[1].localPort = 1001
*.receiver.app[2].localPort = 1002

*.visualizer.statisticVisualizer.barSeries = "sources"
*.visualizer.statisticVisualizer.signalName = "packetReceived"
*.visualizer.statisticVisualizer.sourceFilter = "*.receiver.app[*]"
*.visualizer.statisticVisualizer.barColor = "skyblue"

[Config Packets]
extends = Sources
description = "Number of packets received per stream"
*.visualizer.statisticVisualizer.statisticExpression = "count"
*.visualizer.statisticVisualizer.maxValue = 1000
*.visualizer.statisticVisualizer.valueFormat = "%.0f"

[Config Throughput]
extends = Sources
description = "Throughput per stream"
*.visualizer.statisticVisualizer.statisticExpression = "throughput"
*.visualizer.statisticVisualizer.statisticUnit = "bps"
*.visualizer.statisticVisualizer.unit = "Mbps"
*.visualizer.statisticVisualizer.maxValue = 1
*.visualizer.statisticVisualizer.valueFormat = "%.2f"

# ==========================================================================
# Flow mode: the same three streams all go to ONE sink on the receiver, but
# each is tagged with a flow name (fast/medium/slow) by a FlowMeasurementStarter.
# A single FlowMeasurementRecorder at the receiver emits packetFlowMeasured for
# all three flows; barSeries="flow" demultiplexes that one signal by the packet's
# flow tag (demuxFlow) and draws one throughput bar per flow.
# ==========================================================================
[Config Flow]
description = "Throughput per flow (demultiplexed by the packet's flow tag)"
*.server.numApps = 3
*.server.app[*].typename = "UdpApp"
*.server.app[*].source.packetLength = 1000B
*.server.app[0].source.productionInterval = 10ms  # fast flow
*.server.app[1].source.productionInterval = 25ms  # medium flow
*.server.app[2].source.productionInterval = 60ms  # slow flow
*.server.app[*].io.destAddress = "receiver"
*.server.app[*].io.destPort = 5000
*.server.app[0].measurementStarter.typename = "FlowMeasurementStarter"
*.server.app[0].measurementStarter.flowName = "fast"
*.server.app[1].measurementStarter.typename = "FlowMeasurementStarter"
*.server.app[1].measurementStarter.flowName = "medium"
*.server.app[2].measurementStarter.typename = "FlowMeasurementStarter"
*.server.app[2].measurementStarter.flowName = "slow"

*.receiver.numApps = 1
*.receiver.app[0].typename = "UdpApp"
*.receiver.app[0].source.typename = ""  # receive only
*.receiver.app[0].io.localPort = 5000
*.receiver.app[0].io.destAddress = ""   # receive only (unused)
*.receiver.app[0].io.destPort = 5000    # receive only (unused)
*.receiver.app[0].measurementRecorder.typename = "FlowMeasurementRecorder"
*.receiver.app[0].measurementRecorder.flowName = "fast or medium or slow"

*.visualizer.statisticVisualizer.barSeries = "flow"
*.visualizer.statisticVisualizer.signalName = "packetFlowMeasured"
*.visualizer.statisticVisualizer.sourceFilter = "*.receiver.app[0].measurementRecorder"
*.visualizer.statisticVisualizer.statisticExpression = "throughput(packetLength(demuxFlow))"
*.visualizer.statisticVisualizer.statisticUnit = "bps"
*.visualizer.statisticVisualizer.unit = "Mbps"
*.visualizer.statisticVisualizer.maxValue = 1
*.visualizer.statisticVisualizer.valueFormat = "%.2f"
*.visualizer.statisticVisualizer.barColor = "gold"

# ==========================================================================
# Autoscale variants: same as the configs above, but with maxValue unset, so
# each bar chart scales to its own current maximum (the tallest bar always
# fills the height) instead of a fixed reference.
# ==========================================================================
[Config PacketsAutoscale]
extends = Packets
description = "Number of packets received per stream (autoscaled)"
*.visualizer.statisticVisualizer.maxValue = 0

[Config ThroughputAutoscale]
extends = Throughput
description = "Throughput per stream (autoscaled)"
*.visualizer.statisticVisualizer.maxValue = 0

[Config FlowAutoscale]
extends = Flow
description = "Throughput per flow (autoscaled)"
*.visualizer.statisticVisualizer.maxValue = 0
