[General]
network = StatisticBarsExample
sim-time-limit = 10s

# Three UDP streams from the server to three sink apps on the receiver, at
# different rates, so the per-stream bars differ (fast/medium/slow).
*.server.numApps = 3
*.server.app[*].typename = "UdpBasicApp"
*.server.app[*].destAddresses = "receiver"
*.server.app[*].messageLength = 1000B
*.server.app[0].destPort = 1000
*.server.app[1].destPort = 1001
*.server.app[2].destPort = 1002
*.server.app[0].sendInterval = 10ms  # fast stream
*.server.app[1].sendInterval = 25ms  # medium stream
*.server.app[2].sendInterval = 60ms  # slow stream
*.server.app[*].startTime = uniform(0s, 10ms)

*.receiver.numApps = 3
*.receiver.app[*].typename = "UdpSink"
*.receiver.app[0].localPort = 1000
*.receiver.app[1].localPort = 1001
*.receiver.app[2].localPort = 1002

# The bar chart is drawn above the receiver. barSeries="sources" makes each
# matching source module one bar; the bar value is the statisticExpression
# (count / throughput) of that module's packetReceived signal.
*.visualizer.statisticVisualizer.displayStatistics = true
*.visualizer.statisticVisualizer.displayMode = "bars"
*.visualizer.statisticVisualizer.barSeries = "sources"
*.visualizer.statisticVisualizer.signalName = "packetReceived"
*.visualizer.statisticVisualizer.sourceFilter = "*.receiver.app[*]"
*.visualizer.statisticVisualizer.barColor = "skyblue"

[Config Packets]
description = "Number of packets received per stream"
*.visualizer.statisticVisualizer.statisticExpression = "count"
*.visualizer.statisticVisualizer.maxValue = 1000
*.visualizer.statisticVisualizer.valueFormat = "%.0f"

[Config Throughput]
description = "Throughput per stream"
*.visualizer.statisticVisualizer.statisticExpression = "throughput"
*.visualizer.statisticVisualizer.statisticUnit = "bps"
*.visualizer.statisticVisualizer.unit = "Mbps"
*.visualizer.statisticVisualizer.maxValue = 1
*.visualizer.statisticVisualizer.valueFormat = "%.2f"
