#
# Copyright (C) 2010 Kyeong Soo (Joseph) Kim. All rights reserved.
#
# This ini file is for a test of UDPVideoStreamCli/SvrWithTrace.
#

[General]
network = inet.examples.ngoa.ecr2.TestOfUDPVideoStreaming
tkenv-plugin-path = ../../../etc/plugins
cmdenv-status-frequency = 10s  # default is 2s

#debug-on-errors = true
sim-time-limit = 5min
warmup-period = 10s  # depends on 'startTime' of applications

# results recording
result-dir = results/test
#**.client[*].tcpApp[*].**.scalar-recording = true
**.vector-recording = false

# udp app
**.host.numUdpApps = 2
**.host.udpAppType = "UDPVideoStreamCliWithTrace2"
**.host.udpApp[*].serverAddress = "server"
**.host.udpApp[*].localPort = 9999
**.host.udpApp[*].serverPort = 3088
**.host.udpApp[*].startTime = uniform(5s, 5.01s)
#**.host.udpApp[*].numTraceFrames = 17998  # for 'Terminator 2'
**.host.udpApp[*].numTraceFrames = 46  # for 'test_verbose'
**.host.udpApp[*].gopSize = 12  # for 'Terminator 2'
**.host.udpApp[*].numBFrames = 2  # for 'Terminator 2'

**.host.numUdpApps = 1
**.server.udpAppType = "UDPVideoStreamSvrWithTrace"
#**.server.udpApp[*].videoSize = 10MB
**.server.udpApp[*].serverPort = 3088
#**.server.udpApp[*].waitInterval = 10ms
#**.server.udpApp[*].packetLen = 1000B
**.server.udpApp[*].fps = 30  # frames per second
**.server.udpApp[*].appOverhead = 12B
**.server.udpApp[*].maxPayloadSize = 1460B  # maximum size of payload to be carried in RTP packets
**.server.udpApp[*].traceFile = "../../videoTraces/test_verbose"
#**.srv.updApp[*].maxPayloadSize = 1460B  # maximum size of payload to be carried in RTP packets
#**.srv.updApp[*].traceFile = "../../videoTraces/terminator2_terse"

# NIC configuration
#**.ppp[*].queueType = "DropTailQueue" # in routers
#**.ppp[*].queue.frameCapacity = 1000  # in routers




