[General]
network = RockyMapShowcase
sim-time-limit = 10s

# --- geographic anchor: the local scene ENU tangent plane sits at this lat/lon,
#     which is the centre of img.tif / dem.tif (-122.4, 37.8). ---
*.coordinateSystem.sceneLatitude = 37.8deg
*.coordinateSystem.sceneLongitude = -122.4deg
*.coordinateSystem.sceneAltitude = 0m

# --- render a real geospatial map via Rocky in the VSG 3D view ---
*.visualizer.sceneVisualizer.typename = "SceneRockyVisualizer"
*.visualizer.sceneVisualizer.coordinateSystemModule = "^.^.coordinateSystem"
*.visualizer.sceneVisualizer.imageFile = "img.tif"
*.visualizer.sceneVisualizer.elevationFile = "dem.tif"
*.visualizer.sceneVisualizer.rockyResourcePath = "/Users/gabortabi/rocky-install/share/rocky"
# the Rocky map is the ground now, so drop SceneVsgVisualizer's flat floor quad
*.visualizer.sceneVisualizer.displayScene = false
# frame a wide box so the initial view starts pulled back over the mapped area (the camera
# sizes itself from the node/scene extent) and there is room to zoom out to the horizon
*.visualizer.sceneVisualizer.sceneMinX = -15000m
*.visualizer.sceneVisualizer.sceneMinY = -15000m
*.visualizer.sceneVisualizer.sceneMinZ = 0m
*.visualizer.sceneVisualizer.sceneMaxX = 15000m
*.visualizer.sceneVisualizer.sceneMaxY = 15000m
*.visualizer.sceneVisualizer.sceneMaxZ = 3000m

# --- three stationary hosts spread across the mapped area (km-scale so they sit visibly on it) ---
*.host*.mobility.typename = "StationaryMobility"
*.host*.mobility.initFromDisplayString = false
*.host1.mobility.initialX = 0m
*.host1.mobility.initialY = 0m
*.host1.mobility.initialZ = 50m
*.host2.mobility.initialX = 7000m
*.host2.mobility.initialY = 4500m
*.host2.mobility.initialZ = 50m
*.host3.mobility.initialX = -6500m
*.host3.mobility.initialY = 5500m
*.host3.mobility.initialZ = 50m


# Real Earth imagery + elevation streamed from readymap.org (the standard osgEarth/Rocky
# demo tile server) instead of the synthetic orange test tile. Needs internet at runtime.
[Config RealMap]
description = "Real Earth map (readymap.org online tiles) over San Francisco Bay"
*.visualizer.sceneVisualizer.imageFile = ""
*.visualizer.sceneVisualizer.elevationFile = ""
*.visualizer.sceneVisualizer.imageUrl = "https://readymap.org/readymap/tiles/1.0.0/7/"
*.visualizer.sceneVisualizer.elevationUrl = "https://readymap.org/readymap/tiles/1.0.0/116/"


# Nodes actually communicate over the real map: host1 sends UDP traffic to host3, and the
# radio signals + packet flow are drawn on the map. Uses INET's idealized wireless (unit-disk
# range) so connectivity is deterministic; needs internet (readymap tiles), extends RealMap.
[Config Communication]
extends = RealMap
description = "Nodes exchanging UDP traffic over the real map (signals + packet routes drawn)"

# idealized wireless: deterministic range, no association to configure
*.radioMedium.typename = "RadioMedium"
*.radioMedium.signalAnalogRepresentation = "unitDisk"
**.arp.typename = "GlobalArp"
*.host*.wlan[0].typename = "AckingWirelessInterface"
*.host*.wlan[0].bitrate = 6Mbps
*.host*.wlan[0].radio.typename = "GenericRadio"
*.host*.wlan[0].radio.signalAnalogRepresentation = "unitDisk"
*.host*.wlan[0].radio.transmitter.bitrate = 6Mbps
*.host*.wlan[0].radio.transmitter.analogModel.communicationRange = 4km
*.host*.wlan[0].radio.transmitter.analogModel.interferenceRange = 0m
*.host*.wlan[0].radio.transmitter.analogModel.detectionRange = 0m
*.host*.wlan[0].radio.receiver.ignoreInterference = true

# place the three hosts within range of each other (a ~2 km triangle over the bay)
*.host1.mobility.initialX = 0m
*.host1.mobility.initialY = 0m
*.host2.mobility.initialX = 1800m
*.host2.mobility.initialY = 1000m
*.host3.mobility.initialX = -1500m
*.host3.mobility.initialY = 1200m

# host1 -> host3 UDP flow
*.host1.numApps = 1
*.host1.app[0].typename = "UdpBasicApp"
*.host1.app[0].destAddresses = "host3"
*.host1.app[0].destPort = 5000
*.host1.app[0].messageLength = 1000B
*.host1.app[0].sendInterval = 0.5s
*.host3.numApps = 1
*.host3.app[0].typename = "UdpSink"
*.host3.app[0].localPort = 5000

# draw the radio signals and the packet path on the map
*.visualizer.mediumVisualizer.displaySignals = true
*.visualizer.mediumVisualizer.signalShape = "both"                  # expanding sphere + ground ring
*.visualizer.mediumVisualizer.signalPropagationAnimationTime = 2s   # each signal expands visibly over ~2 s of animation
*.visualizer.mediumVisualizer.signalPropagationAdditionalTime = 1s  # linger a moment at full range before fading
*.visualizer.mediumVisualizer.displaySignalDepartures = true        # yellow marker when a node transmits
*.visualizer.mediumVisualizer.displaySignalArrivals = true          # green marker when a node receives
*.visualizer.mediumVisualizer.displayCommunicationRanges = true     # persistent range circles (visible even when paused)
*.visualizer.dataLinkVisualizer.displayLinks = true
*.visualizer.networkRouteVisualizer.displayRoutes = true
