[General]
load-libs = inetqueueing

[Config ActiveSourcePassiveSink]
network = ProducerConsumerNetwork
sim-time-limit = 10s
cmdenv-event-banners = false
*.producer.packetLength = 1B
*.producer.productionInterval = 1s


[Config ProducerConsumer]
network = ProducerConsumerNetwork
sim-time-limit = 10s
cmdenv-event-banners = false
*.producer.packetLength = 1B
*.producer.productionInterval = 1s


[Config Buffer]
network = BufferNetwork
sim-time-limit = 10s
cmdenv-event-banners = false
*.producer.packetLength = 1B
*.producer.productionInterval = uniform(0s, 1s)
*.collector.collectionInterval = uniform(0s, 2s)
*.queue.buffer.packetCapacity = 2
*.queue.classifier.classifierClass = "TestClassifier"


[Config Burst1]
network = Burst1Network
sim-time-limit = 100s
cmdenv-event-banners = false
*.producer*.packetLength = 1B
*.producer1.productionInterval = uniform(0s, 20s)
*.producer2.productionInterval = uniform(0s, 2s)
*.scheduler.transitionProbabilities = "0 1 1 0"
*.scheduler.waitIntervals = "40 4"


[Config Burst2]
network = Burst2Network
sim-time-limit = 100s
cmdenv-event-banners = false
*.provider.packetLength = 1B
*.collector1.collectionInterval = uniform(0s, 20s)
*.collector2.collectionInterval = uniform(0s, 2s)
*.classifier.transitionProbabilities = "0 1 1 0"
*.classifier.waitIntervals = "40 4"


[Config Classifier]
network = ClassifierNetwork
sim-time-limit = 10s
cmdenv-event-banners = false
*.producer.packetLength = 1B
*.producer.productionInterval = 1s
*.classifier.classifierClass = "TestClassifier"


[Config CompoundQueue]
network = CompoundPacketQueueNetwork
sim-time-limit = 10s
cmdenv-event-banners = false
*.producer.packetLength = 1B
*.producer.productionInterval = uniform(0s, 2s)
*.collector.collectionInterval = uniform(0s, 2s)
*.queue.classifier.classifierClass = "TestClassifier"


[Config Delayer]
network = DelayerNetwork
sim-time-limit = 10s
cmdenv-event-banners = false
*.producer.packetLength = 1B
*.producer.productionInterval = 1s
*.delayer.delay = uniform(0s, 2s)


[Config Demultiplexer]
network = DemultiplexerNetwork
sim-time-limit = 10s
cmdenv-event-banners = false
*.provider.packetLength = 1B
*.numCollectors = 3
*.collector[*].collectionInterval = uniform(0s, 2s)


[Config Duplicator]
network = DuplicatorNetwork
sim-time-limit = 10s
cmdenv-event-banners = false
*.producer.packetLength = 1B
*.producer.productionInterval = 1s
*.duplicator.numDuplicates = intuniform(0, 1)


[Config Filter1]
network = Filter1Network
sim-time-limit = 10s
cmdenv-event-banners = false
*.producer.packetLength = 1B
*.producer.productionInterval = 1s
*.filter.filterClass = "TestFilter"


[Config Filter2]
network = Filter2Network
sim-time-limit = 10s
cmdenv-event-banners = false
*.provider.packetLength = 1B
*.collector.collectionInterval = 1s
*.filter.filterClass = "TestFilter"

[Config Gate1]
network = Gate1Network
sim-time-limit = 10s
cmdenv-event-banners = false
*.producer.packetLength = 1B
*.producer.productionInterval = 1s
*.gate.openTime = 3s
*.gate.closeTime = 7s

[Config Gate2]
network = Gate2Network
sim-time-limit = 10s
cmdenv-event-banners = false
*.provider.packetLength = 1B
*.collector.collectionInterval = 1s
*.gate.openTime = 3s
*.gate.closeTime = 7s



[Config Interface]
network = InterfaceNetwork
sim-time-limit = 10s
cmdenv-event-banners = false
*.provider.packetLength = 1B
*.provider.providingInterval = 0s
*.server.initialNumTokens = 1
*.collector.collectionInterval = uniform(0s, 2s)
*.tokenGenerator.queueModule = "^.queue"
*.tokenGenerator.serverModule = "^.server"


[Config Labeler]
network = LabelerNetwork
sim-time-limit = 10s
cmdenv-event-banners = false
*.producer.packetLength = intuniform(1B, 2B)
*.producer.productionInterval = 1s
*.labeler.filterClasses = "TestSmall TestLarge"
*.labeler.labels = "small large"
*.classifier.labelsToGateIndices = "small 0 large 1"


[Config LeakyBucket]
network = LeakyBucketNetwork
sim-time-limit = 10s
cmdenv-event-banners = false
*.producer.packetLength = 1B
*.producer.productionInterval = uniform(0s, 2s)
*.bucket.server.processingTime = 1s


[Config Meter]
network = MeterNetwork
sim-time-limit = 100s
cmdenv-event-banners = false
*.producer.packetLength = 1B
*.producer.productionInterval = 1s
*.meter.alpha = 0.9
*.limiter.maxPacketrate = 0.5


[Config Multiplexer]
network = MultiplexerNetwork
sim-time-limit = 10s
cmdenv-event-banners = false
*.numProducers = 3
*.producer[*].packetLength = 1B
*.producer[*].productionInterval = uniform(0s, 2s)


[Config TestNetwork]
network = TestNetwork
sim-time-limit = 10s
cmdenv-event-banners = false
*.*.sourceApplication.packetLength = 1B
*.*.sourceApplication.productionInterval = uniform(0s, 2s)
*.*.mac.server.processingTime = uniform(0s, 2s)
*.cable.*Delayer.delay = uniform(0s, 2s)


[Config OrdinalBasedDropper]
network = OrdinalBasedDropperNetwork
sim-time-limit = 10s
cmdenv-event-banners = false
*.producer.packetLength = 1B
*.producer.productionInterval = 1s
*.dropper.dropsVector = "0; 2; 4; 6; 8; 10"


[Config OrdinalBasedDuplicator]
network = OrdinalBasedDuplicatorNetwork
sim-time-limit = 10s
cmdenv-event-banners = false
*.producer.packetLength = 1B
*.producer.productionInterval = 1s
*.duplicator.duplicatesVector = "0; 2; 4; 6; 8; 10"


[Config PassiveSourceActiveSink]
network = ProviderCollectorNetwork
sim-time-limit = 10s
cmdenv-event-banners = false
*.provider.packetLength = 1B
*.collector.collectionInterval = 1s


[Config PriorityClassifier]
network = PriorityClassifierNetwork
sim-time-limit = 10s
cmdenv-event-banners = false
*.queue*.packetCapacity = 1
*.producer.packetLength = 1B
*.producer.productionInterval = uniform(0s, 1s)
*.collector*.collectionInterval = uniform(0s, 2s)


[Config PriorityQueue]
network = PriorityQueueNetwork
sim-time-limit = 10s
cmdenv-event-banners = false
*.producer.packetLength = 1B
*.producer.productionInterval = uniform(0s, 2s)
*.queue.numQueues = 2
*.queue.classifier.classifierClass = "TestClassifier"
*.collector.collectionInterval = uniform(0s, 2s)



[Config PriorityScheduler]
network = PrioritySchedulerNetwork
sim-time-limit = 10s
cmdenv-event-banners = false
*.producer*.packetLength = 1B
*.producer*.productionInterval = uniform(0s, 2s)
*.collector.collectionInterval = uniform(0s, 1s)


[Config QueueFiller]
network = QueueFillerNetwork
sim-time-limit = 10s
cmdenv-event-banners = false
*.filler.provider.packetLength = 1B
*.filler.tokenGenerator.queueModule = "queue"
*.consumer.collectionInterval = 1s


[Config PacketQueue]
network = PacketQueueNetwork
sim-time-limit = 10s
cmdenv-event-banners = false
*.producer.packetLength = 1B
*.producer.productionInterval = uniform(0s, 2s)
*.collector.collectionInterval = uniform(0s, 2s)


[Config RedDropper]
network = RedDropperNetwork
sim-time-limit = 10s
cmdenv-event-banners = false
*.producer.packetLength = 1B
*.producer.productionInterval = uniform(0s, 1s)
*.collector.collectionInterval = uniform(0s, 2s)
*.classifier.classifierClass = "TestClassifier"


[Config RequestResponse]
network = RequestResponseNetwork
sim-time-limit = 100s
cmdenv-event-banners = false
*.requestProducer.packetLength = 1B
*.requestProducer.productionInterval = uniform(0s, 2s)
*.requestConsumer.numKind = 2
*.requestConsumer.classifier.classifierClass = "RequestClassifier"
*.requestConsumer.responseProducerModule = "^.responseProducer"
*.requestConsumer.tokenGenerator[0].numTokensPerPacket = 10
*.requestConsumer.tokenGenerator[1].numTokensPerPacket = 10
*.responseProducer.numKind = 2
*.responseProducer.provider[0].packetLength = intuniform(1B, 10B)
*.responseProducer.provider[0].providingInterval = uniform(0s, 0.2s)
*.responseProducer.provider[1].packetLength = intuniform(1B, 100B)
*.responseProducer.provider[1].providingInterval = uniform(0s, 0.2s)
*.responseProducer.tokenGenerator.serverModule = "^.^.requestConsumer.server"


[Config Scheduler]
network = SchedulerNetwork
sim-time-limit = 10s
cmdenv-event-banners = false
*.provider*.packetLength = 1B
*.collector.collectionInterval = 1s
*.scheduler.schedulerClass = "TestScheduler"


[Config Server]
network = ServerNetwork
sim-time-limit = 10s
cmdenv-event-banners = false
*.provider.packetLength = 1B
*.server.processingTime = uniform(0s, 2s)


[Config Tagger]
network = TaggerNetwork
sim-time-limit = 10s
cmdenv-event-banners = false
*.producer.packetLength = 1B
*.producer.productionInterval = 1s
*.tagger.hopLimit = 1



[Config TokenBucket]
network = TokenBucketNetwork
sim-time-limit = 10s
cmdenv-event-banners = false
*.producer.packetLength = 1B
*.producer.productionInterval = uniform(0s, 2s)
*.bucket.server.maxNumTokens = 10
*.bucket.server.tokenProductionInterval = uniform(0s, 2s)

[Config Telnet]
network = TelnetNetwork_

**.client.numApps = 1
**.client*.app[*].typename = "TelnetClientApp"
**.client*.app[*].io.connectAddress = "server"
**.client*.app[*].io.connectPort = 1000

**.server.numApps = 1
**.server*.app[*].typename = "TcpServerApp"
**.server*.app[*].localPort = 1000
**.server*.app[*].listener.serverConnectionModuleType = "inet.applications.tcpapp.TelnetServerConnection"
**.server*.app[*].connection*.enterTokenGenerator.numTokensPerPacket = intuniform(0, 10)
**.server*.app[*].connection*.responseProvider.packetLength = intuniform(100B, 1000B)
**.server*.app[*].connection*.responseProvider.providingInterval = uniform(0s, 0.1s)

[Config Tel2]
network = TelnetNetwork

**.server.enterTokenGenerator.numTokensPerPacket = intuniform(0, 10)
**.server.responseProvider.packetLength = intuniform(100B, 1000B)
**.server.responseProvider.providingInterval = uniform(0s, 0.1s)
