[Config ActiveSourcePassiveSink]
network = ProducerConsumerTutorialStep
sim-time-limit = 10s

*.producer.packetLength = 1B
*.producer.productionInterval = 1s


[Config PassiveSourceActiveSink]
network = ProviderCollectorTutorialStep
sim-time-limit = 10s

*.provider.packetLength = 1B
*.collector.collectionInterval = 1s


[Config PacketQueue]
network = PacketQueueTutorialStep
sim-time-limit = 10s

*.producer.packetLength = 1B
*.producer.productionInterval = uniform(0s, 1s)
*.collector.collectionInterval = uniform(0s, 2s)


[Config DropTailQueue]
network = DropTailQueueTutorialStep
sim-time-limit = 10s

*.producer.packetLength = 1B
*.producer.productionInterval = uniform(0s, 1s)
*.queue.packetCapacity = 4
*.collector.collectionInterval = uniform(0s, 2s)


[Config Comparator]
network = ComparatorTutorialStep
sim-time-limit = 10s

*.producer.packetLength = 1B
*.producer.packetData = intuniform(0,255)
*.producer.productionInterval = 1s
*.collector.collectionInterval = 2s
*.queue.comparatorClass = "inet::queueing::PacketDataComparator"


[Config Buffer]
network = BufferTutorialStep
sim-time-limit = 10s

*.buffer.dropperClass = "inet::queueing::PacketAtCollectionBeginDropper"
*.producer*.packetLength = 1B
*.producer*.productionInterval = uniform(0s, 1s)
*.collector*.collectionInterval = uniform(0s, 2s)
*.buffer.packetCapacity = 2


[Config PriorityClassifier]
network = PriorityClassifierTutorialStep
sim-time-limit = 10s

*.queue*.packetCapacity = 1
*.producer.packetLength = 1B
*.producer.productionInterval = uniform(0s, 1s)
*.collector*.collectionInterval = uniform(0s, 2s)


[Config WrrClassifier]
network = WrrClassifierTutorialStep
sim-time-limit = 100s

*.producer.packetLength = 1B
*.producer.productionInterval = 1s
*.classifier.weights = "1 3 2"


[Config ContentBasedClassifier]
network = ContentBasedClassifierTutorialStep
sim-time-limit = 10s

*.producer.packetLength = 1B
*.producer.packetData = intuniform(0, 1)
*.producer.productionInterval = 1s
*.classifier.packetFilters = [expr(ByteCountChunk.data == 0), expr(ByteCountChunk.data == 1)]


[Config MarkovClassifier]
network = MarkovClassifierTutorialStep
sim-time-limit = 100s

*.producer.packetLength = 1B
*.producer.productionInterval = 1s
*.classifier.transitionProbabilities = "0 1 1 0"
*.classifier.waitIntervals = "40 4"


[Config GenericClassifier]
network = GenericClassifierTutorialStep
sim-time-limit = 10s

*.producer.packetLength = 1B
*.producer.packetData = intuniform(0, 1)
*.producer.productionInterval = 1s
*.classifier.classifierClass = "inet::queueing::PacketDataClassifier"


[Config PriorityScheduler]
network = PrioritySchedulerTutorialStep
sim-time-limit = 10s

*.producer*.packetLength = 1B
*.producer*.productionInterval = uniform(0s, 2s)
*.collector.collectionInterval = uniform(0s, 1s)


[Config WrrScheduler]
network = WrrSchedulerTutorialStep
sim-time-limit = 100s

*.provider*.packetLength = 1B
*.collector.collectionInterval = 1s
*.scheduler.weights = "1 3 2"


[Config ContentBasedScheduler]
network = ContentBasedSchedulerTutorialStep
sim-time-limit = 10s

*.provider*.providingInterval = uniform(0s, 2s)
*.provider*.packetLength = 1B
*.provider*.packetData = intuniform(0,1)
*.collector.collectionInterval = 1s
*.scheduler.packetFilters = [expr(ByteCountChunk.data == 1), expr(ByteCountChunk.data == 0)]


[Config MarkovScheduler]
network = MarkovSchedulerTutorialStep
sim-time-limit = 100s

*.provider*.packetLength = 1B
*.collector*.collectionInterval = uniform(0s, 2s)
*.scheduler.transitionProbabilities = "0 1 1 0"
*.scheduler.waitIntervals = "40 4"


[Config GenericScheduler]
network = GenericSchedulerTutorialStep
sim-time-limit = 10s

*.provider*.providingInterval = uniform(0s, 2s)
*.provider*.packetLength = 1B
*.provider*.packetData = intuniform(0,255)
*.collector.collectionInterval = 1s
*.scheduler.schedulerClass = "inet::queueing::PacketDataScheduler"


[Config PriorityBuffer]
network = PriorityBufferTutorialStep
sim-time-limit = 10s

*.producer*.packetLength = 1B
*.producer*.productionInterval = uniform(0s, 1s)
*.collector*.collectionInterval = uniform(0s, 2s)
*.buffer.packetCapacity = 2


[Config PriorityQueue]
network = PriorityQueueTutorialStep
sim-time-limit = 10s

*.producer.packetLength = 1B
*.producer.productionInterval = uniform(0s, 2s)
*.queue.numQueues = 2
*.queue.classifier.typename = "WrrClassifier"
*.queue.classifier.weights = "1 1"
*.collector.collectionInterval = uniform(0s, 2s)


[Config CompoundQueue]
network = CompoundPacketQueueTutorialStep
sim-time-limit = 10s

*.producer.packetLength = 1B
*.producer.productionInterval = uniform(0s, 2s)
*.collector.collectionInterval = uniform(0s, 2s)
*.queue.classifier.weights = "1 1 1"
*.queue.producer.packetLength = 1B
*.queue.producer.productionInterval = 1s


[Config Filter1]
network = Filter1TutorialStep
sim-time-limit = 10s

*.producer.packetLength = intuniform(1B, 2B)
*.producer.productionInterval = 1s
*.filter.packetFilter = expr(totalLength == 1B)


[Config Filter2]
network = Filter2TutorialStep
sim-time-limit = 10s

*.provider.packetLength = intuniform(1B, 2B)
*.collector.collectionInterval = 1s
*.filter.packetFilter = expr(totalLength == 1B)


[Config OrdinalBasedDropper]
network = OrdinalBasedDropperTutorialStep
sim-time-limit = 10s

*.producer.packetLength = 1B
*.producer.productionInterval = 1s
*.dropper.dropsVector = "0; 2; 4; 6; 8; 10"


[Config RedDropper]
network = RedDropperTutorialStep
sim-time-limit = 100s

*.producer.packetLength = 1B
*.producer.productionInterval = exponential(1s)
*.dropper.minth = 1
*.dropper.maxth = 3
*.dropper.maxp = 0.1
*.dropper.wq = 0.5
*.collector.collectionInterval = exponential(1s)


[Config Server]
network = ServerTutorialStep
sim-time-limit = 10s

*.provider.packetLength = 1B
*.server.processingTime = uniform(0s, 2s)

[Config TokenBasedServer]
network = TokenBasedServerTutorialStep
sim-time-limit = 10s

*.provider.packetLength = 1B
*.server.initialNumTokens = 10

[Config TimeBasedTokenGenerator]
network = TimeBasedTokenGeneratorTutorialStep
sim-time-limit = 10s

*.provider.packetLength = 1B
*.tokenGenerator.generationInterval = intuniform(1s,2s)
*.tokenGenerator.numTokens = intuniform(1,2)
*.server.tokenConsumptionPerPacket = intuniform(1,2)

[Config PacketBasedTokenGenerator]
network = PacketBasedTokenGeneratorTutorialStep
sim-time-limit = 10s

*.provider.packetLength = 1B
*.producer.packetLength = 1B
*.producer.productionInterval = 1s

[Config QueueBasedTokenGenerator]
network = QueueBasedTokenGeneratorTutorialStep
sim-time-limit = 10s

*.provider.packetLength = 1B
*.collector.collectionInterval = 1s

[Config SignalBasedTokenGenerator]
network = SignalBasedTokenGeneratorTutorialStep
sim-time-limit = 10s

*.provider.packetLength = 1B
*.provider.providingInterval = 1s
*.server.initialNumTokens = 1


[Config Meter]
network = MeterTutorialStep
sim-time-limit = 100s

*.producer.packetLength = 1B
*.producer.productionInterval = 1s
*.meter.alpha = 0.9
*.limiter.maxPacketrate = 0.5


[Config Tagger]
network = TaggerTutorialStep
sim-time-limit = 10s

*.producer.packetLength = 1B
*.producer.productionInterval = 1s
*.tagger.hopLimit = 1


[Config ContentBasedTagger]
network = ContentBasedTaggerTutorialStep
sim-time-limit = 10s

*.producer.packetLength = intuniform(1B,2B)
*.producer.productionInterval = 1s
*.tagger.packetFilter = expr(totalLength == 1B)
*.tagger.hopLimit = 1


[Config Labeler]
network = LabelerTutorialStep
sim-time-limit = 10s

*.producer.packetLength = intuniform(1B, 2B)
*.producer.productionInterval = 1s
*.labeler.packetFilters = [expr(totalLength == 1B), expr(totalLength == 2B)]
*.labeler.labels = "small large"
*.classifier.labelsToGateIndices = "small 0 large 1"


[Config LeakyBucket]
network = LeakyBucketTutorialStep
sim-time-limit = 10s

*.producer.packetLength = 1B
*.producer.productionInterval = uniform(0s, 0.5s)
*.bucket.server.processingTime = 1s
*.bucket.queue.packetCapacity = 1


[Config TokenBucket]
network = TokenBucketTutorialStep
sim-time-limit = 10s

*.producer.packetLength = 1B
*.producer.productionInterval = uniform(0s, 2s)
*.bucket.server.maxNumTokens = 10
*.tokenGenerator.generationInterval = uniform(0s, 2s)


[Config Delayer]
network = DelayerTutorialStep
sim-time-limit = 10s

*.producer.packetLength = 1B
*.producer.productionInterval = 1s
*.delayer.delay = uniform(0s, 2s)

[Config Multiplexer]
network = MultiplexerTutorialStep
sim-time-limit = 10s

*.numProducers = 3
*.producer[*].packetLength = 1B
*.producer[*].productionInterval = uniform(0s, 2s)

[Config Demultiplexer]
network = DemultiplexerTutorialStep
sim-time-limit = 10s

*.provider.packetLength = 1B
*.numCollectors = 3
*.collector[*].collectionInterval = uniform(0s, 2s)

[Config Gate1]
network = Gate1TutorialStep
sim-time-limit = 10s

*.producer.packetLength = 1B
*.producer.productionInterval = 1s
*.gate.openTime = 3s
*.gate.closeTime = 7s

[Config Gate2]
network = Gate2TutorialStep
sim-time-limit = 10s

*.provider.packetLength = 1B
*.collector.collectionInterval = 1s
*.gate.openTime = 3s
*.gate.closeTime = 7s

[Config Duplicator]
network = DuplicatorTutorialStep
sim-time-limit = 10s

*.producer.packetLength = 1B
*.producer.productionInterval = 1s
*.duplicator.numDuplicates = intuniform(0, 1)


[Config OrdinalBasedDuplicator]
network = OrdinalBasedDuplicatorTutorialStep
sim-time-limit = 10s

*.producer.packetLength = 1B
*.producer.productionInterval = 1s
*.duplicator.duplicatesVector = "0; 2; 4; 6; 8; 10"


[Config Cloner]
network = ClonerTutorialStep
sim-time-limit = 10s

*.producer.packetLength = 1B
*.producer.productionInterval = 1s


[Config QueueFiller]
network = QueueFillerTutorialStep
sim-time-limit = 10s

*.filler.provider.packetLength = 1B
*.collector.collectionInterval = 1s


[Config RequestResponse]
network = RequestResponseTutorialStep
sim-time-limit = 100s

*.requestProducer.packetLength = 1B
*.requestProducer.packetData = intuniform(0, 1)
*.requestProducer.productionInterval = uniform(0s, 2s)
*.requestConsumer.numKind = 2
*.requestConsumer.classifier.typename = "ContentBasedClassifier"
*.requestConsumer.classifier.packetFilters = [expr(ByteCountChunk.data == 0), expr(ByteCountChunk.data == 1)]
*.requestConsumer.tokenGenerator[0].numTokensPerPacket = 10
*.requestConsumer.tokenGenerator[1].numTokensPerPacket = 10
*.responseProducer.numKind = 2
*.responseProducer.provider[0].packetLength = intuniform(1B, 10B)
*.responseProducer.provider[0].providingInterval = uniform(0s, 0.2s)
*.responseProducer.provider[1].packetLength = intuniform(1B, 100B)
*.responseProducer.provider[1].providingInterval = uniform(0s, 0.2s)


[Config Telnet]
network = TelnetTutorialStep
sim-time-limit = 100s

**.server.enterTokenGenerator.numTokensPerPacket = intuniform(0, 10)
**.server.responseProvider.packetLength = intuniform(100B, 1000B)
**.server.responseProvider.providingInterval = uniform(0s, 0.1s)


[Config ExampleNetwork]
network = ExampleNetworkTutorialStep
sim-time-limit = 10s

*.*.sourceApplication.packetLength = 1B
*.*.sourceApplication.productionInterval = uniform(0s, 2s)
*.*.interface.server.processingTime = uniform(0s, 2s)
*.cable.*Delayer.delay = uniform(0s, 2s)


[Config InputQueueSwitching]
network = InputQueueSwitching
sim-time-limit = 1000s

*.numSources = 3
*.numSinks = 2

*.*.datarate = 16bps

*.source[*].packetLength = 1B
*.source[*].packetData = intuniform(1, 2)
*.source[*].productionInterval = exponential(1s)

*.classifier.packetFilters = [expr(ByteCountChunk.data % 2 == 0), expr(ByteCountChunk.data % 2 == 1)]

[Config OutputQueueSwitching]
network = OutputQueueSwitching
sim-time-limit = 1000s

*.numSources = 3
*.numSinks = 2

*.*.datarate = 16bps

*.source[*].packetLength = 1B
*.source[*].packetData = intuniform(1, 2)
*.source[*].productionInterval = exponential(1s)

*.classifier.packetFilters = [expr(ByteCountChunk.data % 2 == 0), expr(ByteCountChunk.data % 2 == 1)]
