[General]
tkenv-plugin-path = ../../../etc/plugins
sim-time-limit = 100d

network = WiredNetWithDHCP


*.numHosts = 10

**.numUdpApps = 1


**.cli[*].udpApp[0].typename = "DHCPClient"
**.cli[*].udpApp[0].interface="eth0"   # interface to be configured

**.srv.udpApp[0].typename = "DHCPServer"
**.srv.udpApp[0].net = "192.168.1.0"        # IP network to assign
**.srv.udpApp[0].mask = "255.255.255.0"        # netmask to assign
**.srv.udpApp[0].ipBegin = "192.168.1.100"    # ip to start to lease
**.srv.udpApp[0].clientNum = 100     # number of ip to lease
**.srv.udpApp[0].gateway = "192.168.1.1"     # gateway to assign
**.srv.udpApp[0].dns = ""         # dns to assign
**.srv.udpApp[0].leaseTime = 1000s     # lease time in seconds
**.srv.udpApp[0].interface="eth0"   # interface to listen
