[General]
tkenv-plugin-path = ../../../etc/plugins
sim-time-limit = 100d

[Config WiredDHCP]
description = Hosts configured via DHCP 
network = WiredNetWithDHCP
*.numHosts = 10
**.numUdpApps = 1

**.client[*].udpApp[0].typename = "DHCPClient"
**.client[*].udpApp[0].interface="eth0"   # interface to be configured

**.server.udpApp[0].typename = "DHCPServer"
**.server.udpApp[0].subnetMask = "255.255.255.0"        # netmask to assign
**.server.udpApp[0].ipAddressStart = "192.168.1.100"    # ip to start to lease
**.server.udpApp[0].maxNumClients = 100     # number of ip to lease
**.server.udpApp[0].gateway = "192.168.1.1"     # gateway to assign
**.server.udpApp[0].dns = ""         # dns to assign
**.server.udpApp[0].leaseTime = 1000s     # lease time in seconds
**.server.udpApp[0].interface="eth0"   # interface to listen

[Config DHCPLifeCycle]
description = DHCP with rebooting hosts
network = DHCPWithLifeCycle

**.hasStatus = true
**.scenarioManager.script = xmldoc("scenario.xml")

**.numUdpApps = 1

**.client.udpApp[0].typename = "DHCPClient"
**.client.udpApp[0].interface = "eth0"

**.server.udpApp[0].typename = "DHCPServer"
**.server.udpApp[0].subnetMask = "255.255.255.0"
**.server.udpApp[0].ipAddressStart = "192.168.1.100"
**.server.udpApp[0].maxNumClients = 100
**.server.udpApp[0].gateway = "192.168.1.1"
**.server.udpApp[0].dns = ""
**.server.udpApp[0].leaseTime = 150s
**.server.udpApp[0].interface = "eth0"