[General]
sim-time-limit = 3s
simtime-resolution = us
**.fcsMode = default
**.numEthInterfaces = 2
**.mrp.uuid0 = 333
**.mrp.uuid1 = 999
**.channel.delay = 500ns
**.bitrate = 100Mbps
**.mtu = 1500B
*.visualizer.infoVisualizer.modules = "*.*.mrp"
*.visualizer.infoVisualizer.format = "%t"
*.visualizer.infoVisualizer.placementHint = "topCenter"
*.visualizer.infoVisualizer.textColor = "blue"
*.visualizer.infoVisualizer.textAlignment = "center"
*.visualizer.infoVisualizer.backgroundColor = ""
*.visualizer.infoVisualizer.lineColor = ""
**.annotationSpacing = 0

[SmallNetworkBase]
description = "4 Nodes - 1 Ring"
network = Mrp4
**.hasStatus = true
**.script = xmldoc("Events.xml")
**.mrp.timingProfile = ${timingProfile=500,200,30,10} ms
**.mrp.ccmInterval = ${ccmInterval=10,3.3} ms
**.mrp.enableLinkCheckOnRing = ${enableLinkCheckOnRing=false,true}

[SmallNetworkBaseWithTraffic]
extends = SmallNetworkBase
description = "4 Nodes - 4 Hosts - 1 Ring"
network = Mrp4withHosts
**.cli.reqLength = 938B
**.cli.respLength = 938B
**.cli.startTime = 500ms
**.cli.sendInterval = 1ms
**.host*.encap.typename = ""
**.host*.llc.typename = "Ieee8022Llc"
**.host*.eth.typename = "LayeredEthernetInterface"
**.host*.ethernet.typename = "EthernetLayer"
**.host1.cli.destAddress = "host3"
**.host2.cli.destAddress = "host4"
**.host3.cli.destAddress = "host2"
**.host4.cli.destAddress = "host1"
**.numEthInterfaces = 3

[SmallNetwork]
extends = SmallNetworkBase
*.node0.mrp.mrpRole = "MRM"
**.mrp.mrpRole = "MRC"

[SmallNetworkWithTraffic]
extends = SmallNetworkBaseWithTraffic
*.node0.mrp.mrpRole = "MRM"
**.mrp.mrpRole = "MRC"

[SmallNetworkMRA]
extends = SmallNetworkBase
description = "4 Nodes - 1 Ring"
*.node*.mrp.mrpRole = "MRA"

[SmallNetworkMRAWithTraffic]
extends = SmallNetworkBaseWithTraffic
description = "4 Nodes - 4 Hosts - 1 Ring"
*.node*.mrp.mrpRole = "MRA"

[MediumNetworkBase]
description = "8 Nodes - 2 Rings"
network = Mrp8
**.hasStatus = true
**.script = xmldoc("EventsInter.xml")
**.numEthInterfaces = 3
*.node{3,5}.mrp.mrpRole = "MRM"
**.mrp.mrpRole = "MRC"
*.node{0,2,4,6}.mrp.typename = "MrpInterconnection"
*.node0.mrp.interconnectionRole = "MIM"
*.node*.mrp.interconnectionRole = "MIC"
*.node{0..3}.mrp.uuid0 = 111
*.node{0..3}.mrp.uuid1 = 111
*.node{4..7}.mrp.uuid0 = 222
*.node{4..7}.mrp.uuid1 = 222
**.mrp.timingProfile = ${timingProfile=500,200,30} ms
**.mrp.ccmInterval = ${ccmInterval=10,3.3} ms

[MediumNetworkBaseWithTraffic]
extends = MediumNetworkBase
**.cli.startTime = 500ms
**.cli.sendInterval = 1ms
**.host*.encap.typename = ""
**.host*.llc.typename = "Ieee8022Llc"
**.host*.eth.typename = "LayeredEthernetInterface"
**.host*.ethernet.typename = "EthernetLayer"
**.cli.reqLength = 938B
**.cli.respLength = 938B
**.host1.cli.destAddress = "host3"
**.host2.cli.destAddress = "host4"
**.host3.cli.destAddress = "host2"
**.host4.cli.destAddress = "host1"

[MediumNetworkLC]
extends = MediumNetworkBase
**.mrp.interconnectionCheckMode = "LC"

[MediumNetworkRC]
extends = MediumNetworkBase
**.mrp.interconnectionCheckMode = "RC"

[MediumNetworkLCWithTraffic]
extends = MediumNetworkBaseWithTraffic
**.mrp.interconnectionCheckMode = "LC"

[MediumNetworkRCWithTraffic]
extends = MediumNetworkBaseWithTraffic
**.mrp.interconnectionCheckMode = "RC"

[LargeNetwork]
network = MrpRing
description = "50 Nodes, 1 ring"
*.numNodes = 50
*.node[0].mrp.mrpRole = "MRM"
**.mrp.mrpRole = "MRC"
**.hasStatus = true
**.script = xmldoc("Events50.xml")
**.mrp.timingProfile = ${timingProfile=500,200,30,10} ms
**.mrp.ccmInterval = ${ccmInterval=10,3.3} ms
**.mrp.enableLinkCheckOnRing = ${enableLinkCheckOnRing=false,true}

[LargeNetworkWithTraffic]
description = "50 Nodes, 50 hosts, 1 ring"
extends = LargeNetwork
**.numEthInterfaces = 3
**.cli.startTime = 500ms
**.cli.sendInterval = 10ms
**.cli.reqLength = 75B
**.cli.respLength = 75B
**.host*.encap.typename = ""
**.host*.llc.typename = "Ieee8022Llc"
**.host*.eth.typename = "LayeredEthernetInterface"
**.host*.ethernet.typename = "EthernetLayer"
**.host[*].cli.destAddress = "host[" + string((ancestorIndex(1)+12) % par("<root>","numNodes")) + "]"
