[General]
sim-time-limit = 3s
simtime-resolution = us
**.fcsMode = default 
**.numEthInterfaces = 2  
**.mrp.uuid0 = 333 
**.mrp.uuid1 = 999
**.channel.delay = 500ns 
**.bitrate = 100Mbps
**.mtu = 1500B
*.visualizer.infoVisualizer.modules = "*.*.mrp"
*.visualizer.infoVisualizer.format = "%t"
*.visualizer.infoVisualizer.placementHint = "topCenter"
*.visualizer.infoVisualizer.textColor = "blue"
*.visualizer.infoVisualizer.textAlignment = "center"
*.visualizer.infoVisualizer.backgroundColor = ""
*.visualizer.infoVisualizer.lineColor = ""
**.annotationSpacing = 0

[LargeNetwork]
network = Mrp50
description = "50 Nodes,1 ring"
**.numEthInterfaces = 2
*.nodeO[0].mrp.mrpRole = "MRM"
**.mrp.mrpRole = "MRC"
**.hasStatus = true  
**.script = xmldoc("Events50.xml")
**.mrp.timingProfile = ${timingProfile=500,200,30,10} ms
**.mrp.ccmInterval = ${ccmInterval=10,3.3} ms
**.mrp.interconnectionCheckMode = "LC"

[LargeNetworkWithHosts]
description = "50 Nodes,50 hosts,1 ring"
extends = LargeNetwork
**.numEthInterfaces = 3
**.cli.startTime = 500ms
**.cli.sendInterval = 10ms
**.cli.reqLength = 75B
**.cli.respLength = 75B
**.host*.encap.typename = ""
**.host*.llc.typename = "Ieee8022Llc"
**.host*.eth.typename = "LayeredEthernetInterface"
**.host*.ethernet.typename = "EthernetLayer"
**.hostI[0].cli.destAddress = "Mrp50.hostO[12]"
**.hostI[1].cli.destAddress = "Mrp50.hostO[13]"
**.hostI[2].cli.destAddress = "Mrp50.hostO[14]"
**.hostI[3].cli.destAddress = "Mrp50.hostO[15]"
**.hostI[4].cli.destAddress = "Mrp50.hostO[16]"
**.hostI[5].cli.destAddress = "Mrp50.hostO[17]"
**.hostI[6].cli.destAddress = "Mrp50.hostO[18]"
**.hostI[7].cli.destAddress = "Mrp50.hostO[19]"
**.hostI[8].cli.destAddress = "Mrp50.hostO[20]"
**.hostI[9].cli.destAddress = "Mrp50.hostO[21]"
**.hostI[10].cli.destAddress = "Mrp50.hostO[22]"
**.hostI[11].cli.destAddress = "Mrp50.hostO[23]"
**.hostI[12].cli.destAddress = "Mrp50.hostO[24]"
**.hostI[13].cli.destAddress = "Mrp50.hostO[0]"
**.hostI[14].cli.destAddress = "Mrp50.hostO[1]"
**.hostI[15].cli.destAddress = "Mrp50.hostO[2]"
**.hostI[16].cli.destAddress = "Mrp50.hostO[3]"
**.hostI[17].cli.destAddress = "Mrp50.hostO[4]"
**.hostI[18].cli.destAddress = "Mrp50.hostO[5]"
**.hostI[19].cli.destAddress = "Mrp50.hostO[6]"
**.hostI[20].cli.destAddress = "Mrp50.hostO[7]"
**.hostI[21].cli.destAddress = "Mrp50.hostO[8]"
**.hostI[22].cli.destAddress = "Mrp50.hostO[9]"
**.hostI[23].cli.destAddress = "Mrp50.hostO[10]"
**.hostI[24].cli.destAddress = "Mrp50.hostO[11]"
**.hostO[0].cli.destAddress = "Mrp50.hostI[12]"
**.hostO[1].cli.destAddress = "Mrp50.hostI[13]"
**.hostO[2].cli.destAddress = "Mrp50.hostI[14]"
**.hostO[3].cli.destAddress = "Mrp50.hostI[15]"
**.hostO[4].cli.destAddress = "Mrp50.hostI[16]"
**.hostO[5].cli.destAddress = "Mrp50.hostI[17]"
**.hostO[6].cli.destAddress = "Mrp50.hostI[18]"
**.hostO[7].cli.destAddress = "Mrp50.hostI[19]"
**.hostO[8].cli.destAddress = "Mrp50.hostI[20]"
**.hostO[9].cli.destAddress = "Mrp50.hostI[21]"
**.hostO[10].cli.destAddress = "Mrp50.hostI[22]"
**.hostO[11].cli.destAddress = "Mrp50.hostI[23]"
**.hostO[12].cli.destAddress = "Mrp50.hostI[24]"
**.hostO[13].cli.destAddress = "Mrp50.hostI[0]"
**.hostO[14].cli.destAddress = "Mrp50.hostI[1]"
**.hostO[15].cli.destAddress = "Mrp50.hostI[2]"
**.hostO[16].cli.destAddress = "Mrp50.hostI[3]"
**.hostO[17].cli.destAddress = "Mrp50.hostI[4]"
**.hostO[18].cli.destAddress = "Mrp50.hostI[5]"
**.hostO[19].cli.destAddress = "Mrp50.hostI[6]"
**.hostO[20].cli.destAddress = "Mrp50.hostI[7]"
**.hostO[21].cli.destAddress = "Mrp50.hostI[8]"
**.hostO[22].cli.destAddress = "Mrp50.hostI[9]"
**.hostO[23].cli.destAddress = "Mrp50.hostI[10]"
**.hostO[24].cli.destAddress = "Mrp50.hostI[11]"

[MediumNetwork]
description = "8 Nodes-2 Rings"
network = Mrp8
**.hasStatus = true  
**.script = xmldoc("EventsInter.xml")
**.mrp.interconnectionCheckMode = "LC"
**.numEthInterfaces = 3
*.node3.mrp.mrpRole = "MRM"
*.node5.mrp.mrpRole = "MRM"  
**.mrp.mrpRole = "MRC" 
*.node{0,2,4,6}.mrp.typename = "MrpInterconnection"
*.node0.mrp.interconnectionRole = "MIM"
*.node*.mrp.interconnectionRole = "MIC"
*.node{0..3}.mrp.uuid0 = 111
*.node{0..3}.mrp.uuid1 = 111
*.node{4..7}.mrp.uuid0 = 222
*.node{4..7}.mrp.uuid1 = 222
**.mrp.timingProfile = ${timingProfile=500,200,30} ms
**.mrp.ccmInterval = ${ccmInterval=10,3.3} ms

[MediumNetworkRC]
description = "8 Nodes-2 Rings"
network = Mrp8
**.hasStatus = true  
**.script = xmldoc("EventsInter.xml")
**.mrp.interconnectionCheckMode = "RC"
**.numEthInterfaces = 3
*.node3.mrp.mrpRole = "MRM"
*.node5.mrp.mrpRole = "MRM"  
**.mrp.mrpRole = "MRC" 
*.node{0,2,4,6}.mrp.typename = "MrpInterconnection"
*.node0.mrp.interconnectionRole = "MIM"
*.node*.mrp.interconnectionRole = "MIC"
*.node{0..3}.mrp.uuid0 = 111
*.node{0..3}.mrp.uuid1 = 111
*.node{4..7}.mrp.uuid0 = 222
*.node{4..7}.mrp.uuid1 = 222
**.mrp.timingProfile = ${timingProfile=500,200,30} ms
**.mrp.ccmInterval = ${ccmInterval=10,3.3} ms

[MediumNetworkWithHosts]
extends = MediumNetwork
**.cli.startTime = 500ms
**.cli.sendInterval = 1ms
**.host*.encap.typename = ""
**.host*.llc.typename = "Ieee8022Llc"
**.host*.eth.typename = "LayeredEthernetInterface"
**.host*.ethernet.typename = "EthernetLayer"
**.cli.reqLength = 938B
**.cli.respLength = 938B
**.host1.cli.destAddress = "Mrp8.host3"
**.host2.cli.destAddress = "Mrp8.host4"
**.host3.cli.destAddress = "Mrp8.host2"
**.host4.cli.destAddress = "Mrp8.host1"

[MediumNetworkRCWithHosts]
extends = MediumNetworkRC
**.cli.startTime = 500ms
**.cli.sendInterval = 1ms
**.host*.encap.typename = ""
**.host*.llc.typename = "Ieee8022Llc"
**.host*.eth.typename = "LayeredEthernetInterface"
**.host*.ethernet.typename = "EthernetLayer"
**.cli.reqLength = 938B
**.cli.respLength = 938B
**.host1.cli.destAddress = "Mrp8.host3"
**.host2.cli.destAddress = "Mrp8.host4"
**.host3.cli.destAddress = "Mrp8.host2"
**.host4.cli.destAddress = "Mrp8.host1"

[SmallNetwork]
description = "4 Nodes - 1 Ring"
network = Mrp4
**.hasStatus = true  
**.script = xmldoc("Events.xml")
*.node0.mrp.mrpRole = "MRM"
**.mrp.mrpRole = "MRC"
**.mrp.timingProfile = ${timingProfile=500,200,30,10} ms
**.mrp.ccmInterval = ${ccmInterval=10,3.3} ms
**.mrp.enableLinkCheckOnRing = ${enableLinkCheckOnRing=false,true}

[SmallNetworkMRA]
description = "4 Nodes - 1 Ring"
network = Mrp4
**.hasStatus = true  
**.script = xmldoc("Events.xml")
*.node*.mrp.mrpRole = "MRA"
**.mrp.timingProfile = ${timingProfile=500,200,30,10} ms
**.mrp.ccmInterval = ${ccmInterval=10,3.3} ms
**.mrp.enableLinkCheckOnRing = ${enableLinkCheckOnRing=false,true} 

[SmallNetworkWithHosts]
description = "4 Nodes - 4 Hosts - 1 Ring"
network = Mrp4withHosts
**.hasStatus = true  
**.script = xmldoc("Events.xml")
**.cli.reqLength = 938B
**.cli.respLength = 938B
**.cli.startTime = 500ms
**.cli.sendInterval = 1ms
**.host*.encap.typename = ""
**.host*.llc.typename = "Ieee8022Llc"
**.host*.eth.typename = "LayeredEthernetInterface"
**.host*.ethernet.typename = "EthernetLayer"
*.node0.mrp.mrpRole = "MRM"
**.mrp.mrpRole = "MRC"   
**.host1.cli.destAddress = "Mrp4withHosts.host3"
**.host2.cli.destAddress = "Mrp4withHosts.host4"
**.host3.cli.destAddress = "Mrp4withHosts.host2"
**.host4.cli.destAddress = "Mrp4withHosts.host1"
**.numEthInterfaces = 3 
**.mrp.timingProfile = ${timingProfile=500,200,30,10} ms
**.mrp.ccmInterval = ${ccmInterval=10,3.3} ms
**.mrp.enableLinkCheckOnRing = ${enableLinkCheckOnRing=false,true}

[SmallNetworkMRAWithHosts]
description = "4 Nodes - 4 Hosts - 1 Ring"
network = Mrp4withHosts
**.hasStatus = true  
**.script = xmldoc("Events.xml")
**.cli.reqLength = 938B
**.cli.respLength = 938B
**.cli.startTime = 500ms
**.cli.sendInterval = 1ms
**.host*.encap.typename = ""
**.host*.llc.typename = "Ieee8022Llc"
**.host*.eth.typename = "LayeredEthernetInterface"
**.host*.ethernet.typename = "EthernetLayer"
*.node*.mrp.mrpRole = "MRA"
**.host1.cli.destAddress = "Mrp4withHosts.host3"
**.host2.cli.destAddress = "Mrp4withHosts.host4"
**.host3.cli.destAddress = "Mrp4withHosts.host2"
**.host4.cli.destAddress = "Mrp4withHosts.host1"
**.numEthInterfaces = 3 
**.mrp.timingProfile = ${timingProfile=500,200,30,10} ms
**.mrp.ccmInterval = ${ccmInterval=10,3.3} ms
**.mrp.enableLinkCheckOnRing = ${enableLinkCheckOnRing=false,true}
