[General]
sim-time-limit = 3s
simtime-resolution = us
**.fcsMode = default 
**.numEthInterfaces = 2  
**.mrp.uuid0 = 333 
**.mrp.uuid1 = 999
**.channel.delay = 500ns 
**.bitrate = 100Mbps
**.mtu = 1500B
*.visualizer.infoVisualizer.modules = "*.*.mrp"
*.visualizer.infoVisualizer.format = "%t"
*.visualizer.infoVisualizer.placementHint = "topCenter"
*.visualizer.infoVisualizer.textColor = "blue"
*.visualizer.infoVisualizer.textAlignment = "center"
*.visualizer.infoVisualizer.backgroundColor = ""
*.visualizer.infoVisualizer.lineColor = ""
**.annotationSpacing = 0

[MediumNetwork]
description = "8 Nodes-2 Rings"
network = Mrp8
**.hasStatus = true  
**.script = xmldoc("EventsInter.xml")
**.mrp.interconnectionCheckMode = "LC"
**.numEthInterfaces = 3
*.node3.mrp.mrpRole = "MRM"
*.node5.mrp.mrpRole = "MRM"  
**.mrp.mrpRole = "MRC" 
*.node{0,2,4,6}.mrp.typename = "MrpInterconnection"
*.node0.mrp.interconnectionRole = "MIM"
*.node*.mrp.interconnectionRole = "MIC"
*.node{0..3}.mrp.uuid0 = 111
*.node{0..3}.mrp.uuid1 = 111
*.node{4..7}.mrp.uuid0 = 222
*.node{4..7}.mrp.uuid1 = 222
**.mrp.timingProfile = ${timingProfile=500,200,30} ms
**.mrp.ccmInterval = ${ccmInterval=10,3.3} ms

[MediumNetworkRC]
description = "8 Nodes-2 Rings"
network = Mrp8
**.hasStatus = true  
**.script = xmldoc("EventsInter.xml")
**.mrp.interconnectionCheckMode = "RC"
**.numEthInterfaces = 3
*.node3.mrp.mrpRole = "MRM"
*.node5.mrp.mrpRole = "MRM"  
**.mrp.mrpRole = "MRC" 
*.node{0,2,4,6}.mrp.typename = "MrpInterconnection"
*.node0.mrp.interconnectionRole = "MIM"
*.node*.mrp.interconnectionRole = "MIC"
*.node{0..3}.mrp.uuid0 = 111
*.node{0..3}.mrp.uuid1 = 111
*.node{4..7}.mrp.uuid0 = 222
*.node{4..7}.mrp.uuid1 = 222
**.mrp.timingProfile = ${timingProfile=500,200,30} ms
**.mrp.ccmInterval = ${ccmInterval=10,3.3} ms

[MediumNetworkWithHosts]
extends = MediumNetwork
**.cli.startTime = 500ms
**.cli.sendInterval = 1ms
**.host*.encap.typename = ""
**.host*.llc.typename = "Ieee8022Llc"
**.host*.eth.typename = "LayeredEthernetInterface"
**.host*.ethernet.typename = "EthernetLayer"
**.cli.reqLength = 938B
**.cli.respLength = 938B
**.host1.cli.destAddress = "Mrp8.host3"
**.host2.cli.destAddress = "Mrp8.host4"
**.host3.cli.destAddress = "Mrp8.host2"
**.host4.cli.destAddress = "Mrp8.host1"

[MediumNetworkRCWithHosts]
extends = MediumNetworkRC
**.cli.startTime = 500ms
**.cli.sendInterval = 1ms
**.host*.encap.typename = ""
**.host*.llc.typename = "Ieee8022Llc"
**.host*.eth.typename = "LayeredEthernetInterface"
**.host*.ethernet.typename = "EthernetLayer"
**.cli.reqLength = 938B
**.cli.respLength = 938B
**.host1.cli.destAddress = "Mrp8.host3"
**.host2.cli.destAddress = "Mrp8.host4"
**.host3.cli.destAddress = "Mrp8.host2"
**.host4.cli.destAddress = "Mrp8.host1"

[SmallNetwork]
description = "4 Nodes - 1 Ring"
network = Mrp4
**.hasStatus = true  
**.script = xmldoc("Events.xml")
*.node0.mrp.mrpRole = "MRM"
**.mrp.mrpRole = "MRC"
**.mrp.timingProfile = ${timingProfile=500,200,30,10} ms
**.mrp.ccmInterval = ${ccmInterval=10,3.3} ms
**.mrp.enableLinkCheckOnRing = ${enableLinkCheckOnRing=false,true}

[SmallNetworkMRA]
description = "4 Nodes - 1 Ring"
network = Mrp4
**.hasStatus = true  
**.script = xmldoc("Events.xml")
*.node*.mrp.mrpRole = "MRA"
**.mrp.timingProfile = ${timingProfile=500,200,30,10} ms
**.mrp.ccmInterval = ${ccmInterval=10,3.3} ms
**.mrp.enableLinkCheckOnRing = ${enableLinkCheckOnRing=false,true} 

[SmallNetworkWithHosts]
description = "4 Nodes - 4 Hosts - 1 Ring"
network = Mrp4withHosts
**.hasStatus = true  
**.script = xmldoc("Events.xml")
**.cli.reqLength = 938B
**.cli.respLength = 938B
**.cli.startTime = 500ms
**.cli.sendInterval = 1ms
**.host*.encap.typename = ""
**.host*.llc.typename = "Ieee8022Llc"
**.host*.eth.typename = "LayeredEthernetInterface"
**.host*.ethernet.typename = "EthernetLayer"
*.node0.mrp.mrpRole = "MRM"
**.mrp.mrpRole = "MRC"   
**.host1.cli.destAddress = "Mrp4withHosts.host3"
**.host2.cli.destAddress = "Mrp4withHosts.host4"
**.host3.cli.destAddress = "Mrp4withHosts.host2"
**.host4.cli.destAddress = "Mrp4withHosts.host1"
**.numEthInterfaces = 3 
**.mrp.timingProfile = ${timingProfile=500,200,30,10} ms
**.mrp.ccmInterval = ${ccmInterval=10,3.3} ms
**.mrp.enableLinkCheckOnRing = ${enableLinkCheckOnRing=false,true}

[SmallNetworkMRAWithHosts]
description = "4 Nodes - 4 Hosts - 1 Ring"
network = Mrp4withHosts
**.hasStatus = true  
**.script = xmldoc("Events.xml")
**.cli.reqLength = 938B
**.cli.respLength = 938B
**.cli.startTime = 500ms
**.cli.sendInterval = 1ms
**.host*.encap.typename = ""
**.host*.llc.typename = "Ieee8022Llc"
**.host*.eth.typename = "LayeredEthernetInterface"
**.host*.ethernet.typename = "EthernetLayer"
*.node*.mrp.mrpRole = "MRA"
**.host1.cli.destAddress = "Mrp4withHosts.host3"
**.host2.cli.destAddress = "Mrp4withHosts.host4"
**.host3.cli.destAddress = "Mrp4withHosts.host2"
**.host4.cli.destAddress = "Mrp4withHosts.host1"
**.numEthInterfaces = 3 

[LargeNetwork]
network = MrpRing
description = "50 Nodes, 1 ring"
*.numNodes = 50
*.node[0].mrp.mrpRole = "MRM"
**.mrp.mrpRole = "MRC"
**.hasStatus = true
**.script = xmldoc("Events50.xml")
**.mrp.timingProfile = ${timingProfile=500,200,30,10} ms
**.mrp.ccmInterval = ${ccmInterval=10,3.3} ms
**.mrp.enableLinkCheckOnRing = ${enableLinkCheckOnRing=false,true}

[LargeNetworkWithTraffic]
description = "50 Nodes, 50 hosts, 1 ring"
extends = LargeNetwork
**.numEthInterfaces = 3
**.cli.startTime = 500ms
**.cli.sendInterval = 10ms
**.cli.reqLength = 75B
**.cli.respLength = 75B
**.host*.encap.typename = ""
**.host*.llc.typename = "Ieee8022Llc"
**.host*.eth.typename = "LayeredEthernetInterface"
**.host*.ethernet.typename = "EthernetLayer"
**.host[*].cli.destAddress = "host[" + string((ancestorIndex(1)+12) % par("<root>","numNodes")) + "]"

