[General]
network = UwbirShowcase
sim-time-limit = 5s

**.arp.typename = "GlobalArp"

**.wlan[0].typename = "Ieee802154UwbIrInterface"

*.source.numApps = 1
*.source.app[0].typename = "UdpBasicApp"
*.source.app[*].destAddresses = "destination"
*.source.app[*].destPort = 1000
*.source.app[*].messageLength = 100B
*.source.app[*].sendInterval = 1ms

*.destination.numApps = 1
*.destination.app[0].typename = "UdpSink"
*.destination.app[*].localPort = 1000

**.dataLinkVisualizer.displayLinks = true
**.mediumVisualizer.displaySpectrums = true

**.mac.bitrate = 851kbps		# 802.15.4 UwbIr mandatory mode