[General]
network = DirectionalAntennasShowcase
sim-time-limit = 360s
debug-on-errors=true

# don't send arp messages
*.*.ipv4.arp.typename = "GlobalArp"

# ping app settings
*.source.numApps = 1
*.source.app[0].typename = "PingApp"
*.source.app[0].destAddr = ["destination"]
*.source.app[0].sendInterval = 0.5s

# mobility settings
*.destination.mobility.typename = "CircleMobility"
*.destination.mobility.cx = 400m
*.destination.mobility.cy = 200m
*.destination.mobility.r = 150m
*.destination.mobility.startAngle = 90deg
*.destination.mobility.speed = -2.61799387799mps

# visualizer settings
*.visualizer.*.radioVisualizer.displayRadios = true
*.visualizer.*.radioVisualizer.displayAntennaLobes = true
*.visualizer.*.radioVisualizer.radioFilter = "*.source**"
*.visualizer.*.dataLinkVisualizer.displayLinks = true

*.visualizer.*.radioVisualizer.antennaLobeLogarithmicScale = 37.5
*.visualizer.*.radioVisualizer.antennaLobeRadius = 100

[Config IsotropicAntenna]

*.source.wlan[*].radio.antenna.typename = "IsotropicAntenna"

[Config ParabolicAntenna]

*.source.wlan[*].radio.antenna.typename = "ParabolicAntenna"
*.source.wlan[*].radio.antenna.beamWidth = 30deg
*.source.wlan[*].radio.antenna.maxGain = 10dB
*.source.wlan[*].radio.antenna.minGain = -50dB

[Config DipoleAntenna]

*.source.wlan[*].radio.antenna.typename = "DipoleAntenna"
*.source.wlan[*].radio.antenna.length = 0.1m
*.source.wlan[*].radio.antenna.wireAxis = "y"

[Config CosineAntenna]

*.source.wlan[*].radio.antenna.typename = "CosineAntenna"
*.source.wlan[*].radio.antenna.beamWidth = 30deg
*.source.wlan[*].radio.antenna.maxGain = 10dB

[Config AxiallySymmetricAntenna]

*.source.wlan[*].radio.antenna.typename = "AxiallySymmetricAntenna"
*.source.wlan[*].radio.antenna.baseGain = 10dB
*.source.wlan[*].radio.antenna.gains = {
        0deg: 0.000dB, 1deg: -0.010dB, 2deg: -0.039dB, 3deg: -0.088dB, 4deg: -0.156dB, 5deg: -0.245dB, 6deg: -0.354dB, 7deg: -0.484dB, 8deg: -0.635dB, 9deg: -0.807dB,
        10deg: -1.002dB, 11deg: -1.220dB, 12deg: -1.461dB, 13deg: -1.727dB, 14deg: -2.019dB, 15deg: -2.336dB, 16deg: -2.680dB, 17deg: -3.051dB, 18deg: -3.451dB, 19deg: -3.880dB,
        20deg: -4.338dB, 21deg: -4.826dB, 22deg: -5.344dB, 23deg: -5.890dB, 24deg: -6.464dB, 25deg: -7.064dB, 26deg: -7.687dB, 27deg: -8.328dB, 28deg: -8.982dB, 29deg: -9.641dB,
        30deg: -10.299dB, 31deg: -10.945dB, 32deg: -11.572dB, 33deg: -12.172dB, 34deg: -12.740dB, 35deg: -13.276dB, 36deg: -13.786dB, 37deg: -14.277dB, 38deg: -14.766dB, 39deg: -15.267dB,
        40deg: -15.801dB, 41deg: -16.389dB, 42deg: -17.053dB, 43deg: -17.816dB, 44deg: -18.707dB, 45deg: -19.757dB, 46deg: -21.009dB, 47deg: -22.517dB, 48deg: -24.356dB, 49deg: -26.624dB,
        50deg: -29.385dB, 51deg: -32.255dB, 52deg: -33.256dB, 53deg: -31.393dB, 54deg: -28.954dB, 55deg: -26.957dB, 56deg: -25.451dB, 57deg: -24.345dB, 58deg: -23.561dB, 59deg: -23.044dB,
        60deg: -22.758dB, 61deg: -22.678dB, 62deg: -22.789dB, 63deg: -23.081dB, 64deg: -23.548dB, 65deg: -24.188dB, 66deg: -24.994dB, 67deg: -25.956dB, 68deg: -27.048dB, 69deg: -28.212dB,
        70deg: -29.338dB, 71deg: -30.260dB, 72deg: -30.812dB, 73deg: -30.941dB, 74deg: -30.752dB, 75deg: -30.426dB, 76deg: -30.109dB, 77deg: -29.889dB, 78deg: -29.807dB, 79deg: -29.875dB,
        80deg: -30.087dB, 81deg: -30.423dB, 82deg: -30.853dB, 83deg: -31.329dB, 84deg: -31.797dB, 85deg: -32.199dB, 86deg: -32.488dB, 87deg: -32.650dB, 88deg: -32.708dB, 89deg: -32.704dB,
        90deg: -32.685dB, 91deg: -32.683dB, 92deg: -32.710dB, 93deg: -32.751dB, 94deg: -32.769dB, 95deg: -32.715dB, 96deg: -32.537dB, 97deg: -32.212dB, 98deg: -31.750dB, 99deg: -31.198dB,
       100deg: -30.613dB, 101deg: -30.052dB, 102deg: -29.557dB, 103deg: -29.158dB, 104deg: -28.874dB, 105deg: -28.718dB, 106deg: -28.695dB, 107deg: -28.806dB, 108deg: -29.052dB, 109deg: -29.422dB,
       110deg: -29.898dB, 111deg: -30.440dB, 112deg: -30.978dB, 113deg: -31.408dB, 114deg: -31.603dB, 115deg: -31.473dB, 116deg: -31.021dB, 117deg: -30.335dB, 118deg: -29.536dB, 119deg: -28.724dB,
       120deg: -27.962dB, 121deg: -27.284dB, 122deg: -26.704dB, 123deg: -26.228dB, 124deg: -25.856dB, 125deg: -25.585dB, 126deg: -25.413dB, 127deg: -25.336dB, 128deg: -25.354dB, 129deg: -25.463dB,
       130deg: -25.663dB, 131deg: -25.956dB, 132deg: -26.339dB, 133deg: -26.815dB, 134deg: -27.383dB, 135deg: -28.040dB, 136deg: -28.779dB, 137deg: -29.577dB, 138deg: -30.394dB, 139deg: -31.153dB,
       140deg: -31.734dB, 141deg: -32.004dB, 142deg: -31.876dB, 143deg: -31.374dB, 144deg: -30.611dB, 145deg: -29.718dB, 146deg: -28.795dB, 147deg: -27.900dB, 148deg: -27.062dB, 149deg: -26.294dB,
       150deg: -25.597dB, 151deg: -24.968dB, 152deg: -24.405dB, 153deg: -23.902dB, 154deg: -23.454dB, 155deg: -23.057dB, 156deg: -22.705dB, 157deg: -22.395dB, 158deg: -22.123dB, 159deg: -21.885dB,
       160deg: -21.679dB, 161deg: -21.501dB, 162deg: -21.348dB, 163deg: -21.218dB, 164deg: -21.109dB, 165deg: -21.018dB, 166deg: -20.943dB, 167deg: -20.882dB, 168deg: -20.833dB, 169deg: -20.795dB,
       170deg: -20.766dB, 171deg: -20.745dB, 172deg: -20.729dB, 173deg: -20.718dB, 174deg: -20.711dB, 175deg: -20.707dB, 176deg: -20.705dB, 177deg: -20.703dB, 178deg: -20.703dB, 179deg: -20.703dB,
       180deg: -20.703dB
    }

**.radioVisualizer.antennaLobeStep = 1deg
