[General]
sim-time-limit = 300s

# ip settings
**.ip.procDelay = 1us

# NIC configuration
**.eth[*].queue.typename = "EtherQosQueue"
**.eth[*].queue.dataQueue.typename = "DropTailQueue"
**.eth[*].queue.dataQueue.frameCapacity = 100

# BGP settings
**.bgpConfig = xmldoc("config.xml")

description = "BGP example 4 3routers"
network = BGPTest4
fingerprint = 04ea-0d73/tplx
**.scenarioManager.script = xml("<empty/>")

[Config LinkDown]
fingerprint = 4f75-ea7f/tplx
**.scenarioManager.script = xmldoc("scenario1.xml")

[Config LinkDownAndUp]
fingerprint = 3604-a230/tplx
**.scenarioManager.script = xmldoc("scenario2.xml")