[General]
network = Throughput
sim-time-limit = 1s

*.*Host.ipv4.arp.typename = "GlobalArp"

*.*Host.wlan[*].mgmt.typename = "Ieee80211MgmtAdhoc"
*.*Host.wlan[*].agent.typename = ""
*.*Host.wlan[*].opMode = "g(erp)"
*.*Host.wlan[*].bitrate = ${bitrate = 6,9,12,18,24,36,48,54}Mbps

*.*Host.wlan[*].mac.dcf.originatorMacDataService.fragmentationPolicy.fragmentationThreshold = 2304B + 28B

*.*Host.wlan[*].radio.separateReceptionParts = true
*.*Host.wlan[*].radio.separateTransmissionParts = true

*.sourceHost.numApps = 1
*.sourceHost.app[0].typename = "UdpBasicApp"
*.sourceHost.app[*].destAddresses = "destinationHost"
*.sourceHost.app[*].destPort = 5000
*.sourceHost.app[*].packetName = "UDPData-"
*.sourceHost.app[*].startTime = 0s

*.sourceHost.app[*].messageLength = ${packetLength = 100, 1000, 2268}byte
*.sourceHost.app[*].sendInterval = ${packetLength} * 8 / ${bitrate} * 1us

*.destinationHost.numApps = 1
*.destinationHost.app[0].typename = "UdpSink"
*.destinationHost.app[*].localPort = 5000