#
# Copyright (C) 2012 Kyeong Soo (Joseph) Kim. All rights reserved.
#
# This ini file is for a test of UDP appllications.
#

[General]
network = inet.examples.ngoa.isp_traffic_shaping2.testUdpApps
tkenv-plugin-path = ../../../etc/plugins
#cmdenv-status-frequency = 10s  # default is 2s

#debug-on-errors = true
sim-time-limit = 15min
#warmup-period = 2min	# depends on 'startTime' of applications
repeat = 1

# results recording
result-dir = results/test/udpApps
**.scalar-recording = true
#**.host.videoApp[*].video\ stream\ eed.vector-recording = true
**.vector-recording = false

*.numWcts = ${numWcts=1}	# number of WCT source/sink paris

########################################################################
### TCP parameters
########################################################################
**.tcp.sendQueueClass = "TCPMsgBasedSendQueue"
**.tcp.receiveQueueClass = "TCPMsgBasedRcvQueue"
**.tcp.mss = 1460	# optimal for Ethernet interface whose MTU is 1500 bytes

########################################################################
### NIC (of server, hosts, and Ethernet switches)
########################################################################
**.frameCapacity = 10000	# in frames; based on RTT(10ms)*BW(10G) (default is 100)
**.txQueueLimit = 10000		# in frames; based on RTT(10ms)*BW(10G) (default is 100)

###
### Burst Meter
###
**.burstMeter.maxIFG = 1	# maximum IFGs allowed between two consecutive Ethernet frames of a same burst
###
### TBF configurations (at tagged ports toward ODN)
###
**.olt.mac[0].queueType = "DropTailVLANTBFQueue"  # OLT downstream queue
**.olt.mac[0].queue.numQueues = ${numWcts}
**.olt.mac[0].queue.mtu = 1522B	# for Ethernet frame with header(18) + VLAN tag (4) + maximum payload (1500)
**.olt.mac[0].queue.peakRate = ${pr=100}Mbps
###
### UDP applications at wct sources
###
**.wct_source[*].numUdpApps = 1
**.wct_source[*].udpAppType = "UDPBurstApp"
**.wct_source[*].udpApp.localPort = 7000
**.wct_source[*].udpApp.destPort = 8000
**.wct_source[*].udpApp.startTime = 0s
**.wct_source[*].udpApp.lineRate = 100Mbps
###
### UDP sinks at wct sinks
###
**.wct_sink[*].numUdpApps = 1
**.wct_sink[*].udpAppType = "UDPSink"
**.wct_sink[*].udpApp[*].localPort = 8000


[Config Base]
### TBF
**.olt.mac[0].queue.meanRate = ${mr=2}Mbps
**.olt.mac[0].queue.bucketSize = ${bs=100}*1000000B	# 100 MB
### WCT generator
**.wct_source[*].udpApp.messageLength = (1472.0/1522.0)*(${pr})*(${bs})/((${pr})-(${mr}))*1000000B
**.wct_source[*].udpApp.messagePeriod = 8*(${bs})*(${pr})/((${mr})*((${pr})-(${mr})))*1s

[Config Test1]
sim-time-limit = 5s
### TBF
**.olt.mac[0].queue.meanRate = ${mr=2}Mbps
**.olt.mac[0].queue.bucketSize = ${bs=1}*1000000B	# 1 MB
### WCT generator
**.wct_source[*].udpApp.messageLength = ((1472.0/1522.0)*(${pr})*(${bs})/((${pr})-(${mr}))*1000000+10000)*1B
**.wct_source[*].udpApp.messagePeriod = 8*(${bs})*(${pr})/((${mr})*((${pr})-(${mr})))*1s

[Config Test2]
sim-time-limit = 1.5s
warmup-period = 1s
### TBF
**.olt.mac[0].queue.meanRate = ${mr=2}Mbps
**.olt.mac[0].queue.bucketSize = ${bs=7610}B	# 5*mtu
### WCT generator
#**.wct_source[*].udpApp.messageLength = (1472.0/1522.0)*(${pr})*(${bs})/((${pr})-(${mr}))*1B
**.wct_source[*].udpApp.messageLength = 7300B
**.wct_source[*].udpApp.messagePeriod = 8*(${bs})*(${pr})/((${mr})*((${pr})-(${mr})))*1us
**.wct_source[*].udpApp.startTime = 1s