[General]
sim-time-limit = 100d
#abstract-config = true (requires omnet 7)

[Config WiredDHCP]
description = Hosts configured via DHCP
network = WiredNetWithDHCP
*.numHosts = 10

**.client[*].numApps = 1
**.client[*].app[0].typename = "DhcpClient"
**.client[*].app[0].startTime = uniform(0s, 1s)

**.server.numApps = 1
**.server.app[0].typename = "DhcpServer"
**.server.app[0].numReservedAddresses = 100    # ip to start to lease
**.server.app[0].maxNumClients = 100     # number of ip to lease
**.server.app[0].gateway = "192.168.1.1"     # gateway to assign
**.server.app[0].leaseTime = 1000s     # lease time in seconds

[Config _Wireless]
description = common base for wireless dhcp simulations
#abstract-config = true (requires omnet 7)

*.visualizer.dataLinkVisualizer.packetFilter = "ping*"
*.visualizer.dataLinkVisualizer.lineStyle = "dotted"
#*.visualizer.networkRouteVisualizer.packetFilter = "ping*"

**.radio.displayCommunicationRange = true


[Config WirelessDHCP]
description = Wireless hosts configured via DHCP
network = WirelessNetWithDHCP
extends = _Wireless

**.mobility.constraintAreaMinX = 0m
**.mobility.constraintAreaMinY = 0m
**.mobility.constraintAreaMinZ = 0m
**.mobility.constraintAreaMaxX = 500m
**.mobility.constraintAreaMaxY = 500m
**.mobility.constraintAreaMaxZ = 0m

**.configurator.config = xml("<config><interface hosts='gateway' names='eth0' address='192.168.0.1' netmask='255.255.255.0'/><interface names='eth*' address='192.168.x.x' netmask='255.255.255.0'/></config>")
**.numHosts = 1

# analog model
**.analogModel.ignorePartialInterference = true

# DHCP client in the wireless hosts
**.client[*].numApps = 2
**.client[*].app[0].typename = "DhcpClient"
**.client[*].app[1].typename = "PingApp"
**.client[*].app[1].destAddr = "remote"
**.client[*].app[1].startTime = 3s

# DHCP server for the wireless network
**.dhcpServer.numApps = 1
**.dhcpServer.app[0].typename = "DhcpServer"
**.dhcpServer.app[0].numReservedAddresses = 10    # ip to start to lease
**.dhcpServer.app[0].maxNumClients = 100
**.dhcpServer.app[0].gateway = "192.168.0.1"
**.dhcpServer.app[0].leaseTime = 100s

[Config Wireless2DHCP]
description = Wireless hosts configured via DHCP
network = WirelessNetWith2DHCP
extends = _Wireless

**.numHosts = 1

**.wlan[*].radio.transmitter.power = 2mW

**.configurator.config = xml(" \
    <config> \
        <interface hosts='dhcpServer1' names='eth0' address='192.168.1.1' netmask='255.255.255.0'/> \
        <interface hosts='dhcpServer2' names='eth0' address='192.168.2.1' netmask='255.255.255.0'/> \
        <interface among='server dhcpServer1' address='192.168.3.x' netmask='255.255.255.0'/> \
        <interface among='server dhcpServer2' address='192.168.4.x' netmask='255.255.255.0'/> \
        <wireless hosts='client'/> \
        <route hosts='server' destination='192.168.1.0' netmask='255.255.255.0' gateway='dhcpServer1' /> \
        <route hosts='server' destination='192.168.2.0' netmask='255.255.255.0' gateway='dhcpServer2' /> \
    </config> \
    ")

# DHCP client in the wireless hosts
**.client.numApps = 2
**.client.app[0].typename = "DhcpClient"
**.client.app[1].typename = "PingApp"
**.client.app[1].destAddr = "server"
**.client.app[1].startTime = 3s
**.client.mobility.typename = "RectangleMobility"
**.client.mobility.constraintAreaMinX = 60m
**.client.mobility.constraintAreaMinY = 100m
**.client.mobility.constraintAreaMaxX = 540m
**.client.mobility.constraintAreaMaxY = 150m
**.client.mobility.startPos = 0
**.client.mobility.speed = 20mps

**.mobility.constraintAreaMinX = 0m
**.mobility.constraintAreaMinY = 100m
**.mobility.constraintAreaMinZ = 0m
**.mobility.constraintAreaMaxX = 600m
**.mobility.constraintAreaMaxY = 450m
**.mobility.constraintAreaMaxZ = 0m


# DHCP server for the wireless network
**.dhcpServer1.numApps = 1
**.dhcpServer1.app[0].typename = "DhcpServer"
**.dhcpServer1.app[0].interface = "eth0"
**.dhcpServer1.app[0].numReservedAddresses = 10    # ip to start to lease
**.dhcpServer1.app[0].maxNumClients = 100
**.dhcpServer1.app[0].leaseTime = 100s

**.dhcpServer2.numApps = 1
**.dhcpServer2.app[0].typename = "DhcpServer"
**.dhcpServer2.app[0].interface = "eth0"
**.dhcpServer2.app[0].numReservedAddresses = 10    # ip to start to lease
**.dhcpServer2.app[0].maxNumClients = 100
**.dhcpServer2.app[0].leaseTime = 100s

**.dhcpServer*.forwarding = true

[Config RebootingDHCP]
description = DHCP with rebooting host and server
network = DHCPShutdownReboot

*.visualizer.*.interfaceTableVisualizer.displayInterfaceTables = true
#*.visualizer.*.interfaceTableVisualizer.interfaceFilter = "not lo* and not ipv4Address(<unspec>)"

**.hasStatus = true
**.scenarioManager.script = xmldoc("scenario.xml")

**.client.numApps = 1
**.client.app[0].typename = "DhcpClient"

**.server.numApps = 1
**.server.app[0].typename = "DhcpServer"
**.server.app[0].numReservedAddresses = 100
**.server.app[0].maxNumClients = 100
**.server.app[0].gateway = "192.168.1.1"
**.server.app[0].leaseTime = 40s
