%description:
Testing manetrouting with AODV routing protocol, UDP forwarding
    manetrouting AODV UDP
%#--------------------------------------------------------------------------------------------------------------
%testprog: opp_run
%#--------------------------------------------------------------------------------------------------------------
%file: test.ned

import inet.networklayer.configurator.ipv4.Ipv4FlatNetworkConfigurator;
import inet.node.aodv.AodvRouter;
import inet.physicallayer.wireless.ieee80211.packetlevel.Ieee80211ScalarRadioMedium;


// 
// Example network for testing aodv routing. Contains
// fixed and mobile nodes. Mobile nodes are not moving,
// but are scattered randomly on the playground.
//
network Net80211_aodv_test
{
    parameters:
        int numHosts;
        int distance @unit(m) = default(350m);
    submodules:
        senderhost: AodvRouter {
            parameters:
                mobility.initialX = 1m;
                mobility.initialY = 200m;
                mobility.initialZ = 0m;
                @display("i=device/pocketpc_s;r=,,#707070");
        }
        rcvrhost: AodvRouter {
            parameters:
                mobility.initialX = 1m + (numHosts+1) * distance;
                mobility.initialY = 200m;
                mobility.initialZ = 0m;
                @display("i=device/pocketpc_s;r=,,#707070");
        }
        host[numHosts]: AodvRouter {
            parameters:
                mobility.initialX = 1m + (index+1) * distance;
                mobility.initialY = 200m;
                mobility.initialZ = 0m;
                @display("i=device/pocketpc_s;r=,,#707070");
        }
        radioMedium: Ieee80211ScalarRadioMedium {
            parameters:
                @display("p=60,50;i=misc/sun");
        }
        configurator: Ipv4FlatNetworkConfigurator {
            parameters:
                networkAddress = "145.236.0.0";
                netmask = "255.255.0.0";
                @display("p=181,51;i=block/cogwheel_s");
        }
    connections allowunconnected:
}


%#--------------------------------------------------------------------------------------------------------------
%inifile: omnetpp.ini

[General]
#debug-on-errors = true
record-eventlog = false
sim-time-limit = 101s
seed-0-mt = 5
network = Net80211_aodv_test

cmdenv-express-mode = false

description = "Aodv Simple test"

#**.drawCoverage=false
*.numHosts = 10

**.constraintAreaMinX = 0m
**.constraintAreaMinY = 0m
**.constraintAreaMinZ = 0m
**.constraintAreaMaxX = 4000m
**.constraintAreaMaxY = 300m
**.constraintAreaMaxZ = 0m

**.networkLayer.configurator.networkConfiguratorModule = ""

# mobility
**.mobility.initFromDisplayString = false

**.host*.mobility.typename = "StationaryMobility"
**.*host.mobility.typename = "StationaryMobility"

# udp apps (on)
**.senderhost.numApps = 1
**.senderhost.app[0].typename = "UdpBasicBurst"

**.app[0].destAddresses = "rcvrhost"
**.app[0].localPort = 1234
**.app[0].destPort = 1234
**.app[0].messageLength = 512B  #
**.app[0].sendInterval = 10s + uniform(-0.001s,0.001s)
**.app[0].burstDuration = 0
**.app[0].chooseDestAddrMode = "perBurst"
**.app[0].sleepDuration = 1s
**.app[0].stopTime = -1s
**.app[0].startTime = 10s
**.app[0].delayLimit = 20s
**.app[0].destAddrRNG = 0

**.rcvrhost.numApps = 1
**.rcvrhost.app[0].typename = "UdpSink"
**.rcvrhost.app[0].localPort = 1234

# ip settings
**.ip.procDelay = 10us
# **.forwarding=false

######################################################################
# manet routing
**.routingProtocol = "AODVUU"
#######################################################

# nic settings
#for validation
**.wlan*.*.dataBitrate = 54Mbps
**.wlan*.*.basicBitrate = 1Mbps
**.wlan*.*.multicastBitrate = 54Mbps
**.wlan*.*.controlBitrate = 1Mbps
#for validation
**.wlan*.mac.EDCA = false
**.wlan*.mac.queue.packetCapacity = 14
**.wlan*.mac.rtsThresholdBytes = 3000B
**.wlan*.mac.basicBitrate = 6Mbps  # 24Mbps

# channel physical parameters
*.radioMedium.pMax = 2.0mW

**.wlan*.radio.transmitterPower=2.0mW
**.wlan*.radio.sensitivity=-90dBm
**.wlan*.radio.receiver.errorModelType = "Ieee80211BerTableErrorModel"
**.wlan*.radio.receiver.errorModel.berTableFile="../../files/per_table_80211g_Trivellato.dat"


**.broadCastDelay=uniform(0s,0.005s)


%#--------------------------------------------------------------------------------------------------------------
%postrun-command: Rscript check.r
%#--------------------------------------------------------------------------------------------------------------
%file: check.r
#!/usr/bin/env Rscript

options(echo=FALSE)
options(width=160)
library("omnetpp", warn.conflicts=FALSE)

#TEST parameters
scafile <- 'results/General-#0.sca'
linecount <- 1
packets <- 10.0

# begin TEST:

dataset <- loadDataset(scafile)

cat("\nOMNETPP TEST RESULT:\n")

cat("\n  MANETROUTING UDP TEST RESULT:\n")

cat("\n    CHECKS SENT PACKETS:\n")

x <- dataset$scalars[dataset$scalars$name == "packetSent:count",]
xx <- x[grep("\\.senderhost\\.app\\[0\\]",x$module),]

if(length(xx$value) != linecount)
{
    cat("      LINECOUNT INCORRECT\n")
    print(xx)
} else {
    cat("      LINECOUNT CORRECT\n")

    if(max(xx$value) != packets)
    {
        cat("      NUMBER OF PACKETS INCORRECT\n")
        print(xx)
    } else {
        cat("      NUMBER OF PACKETS CORRECT\n")
    }
}

cat("\n    CHECKS RECEIVED PACKETS:\n")

x <- dataset$scalars[dataset$scalars$name == "packetReceived:count",]
xx <- x[grep("\\.rcvrhost\\.app\\[0\\]",x$module),]

if(length(xx$value) != linecount)
{
    cat("      LINECOUNT INCORRECT\n")
    print(xx)
} else {
    cat("      LINECOUNT CORRECT\n")

    if(max(xx$value) < packets -1)         #   one packet different is acceptable.
    {
        cat("      NUMBER OF PACKETS INCORRECT\n")
        print(xx)
    } else {
        cat("      NUMBER OF PACKETS CORRECT\n")
    }
}

cat("\n")


%#--------------------------------------------------------------------------------------------------------------
%contains: postrun-command(1).out

OMNETPP TEST RESULT:

  MANETROUTING UDP TEST RESULT:

    CHECKS SENT PACKETS:
      LINECOUNT CORRECT
      NUMBER OF PACKETS CORRECT

    CHECKS RECEIVED PACKETS:
      LINECOUNT CORRECT
      NUMBER OF PACKETS CORRECT

%#--------------------------------------------------------------------------------------------------------------
