%description:
Testing the number of received multicast datagrams in examples/pim/dm/ simulation.
%#--------------------------------------------------------------------------------------------------------------
%testprog: opp_run
%#--------------------------------------------------------------------------------------------------------------
%inifile: omnetpp.ini

[General]
ned-path = .;../../../../src;../../../../examples
sim-time-limit = 500s
output-scalar-file = test.sca
**.app[*].packetSent*.scalar-recording = true
**.app[*].packetReceived*.scalar-recording = true
**.scalar-recording = false
**.vector-recording = false

**.configurator.config = xmldoc("../../../../examples/pim/dm/basic/networkConfig.xml")

include ../../../../examples/pim/dm/basic/omnetpp.ini

%#--------------------------------------------------------------------------------------------------------------
%contains-regex: test.sca
scalar pimDMFinal.Source1.app\[0\]\s+packetSent:count\s+20
%#--------------------------------------------------------------------------------------------------------------
%contains-regex: test.sca
scalar pimDMFinal.Source2.app\[0\]\s+packetSent:count\s+10
%#--------------------------------------------------------------------------------------------------------------
%contains-regex: test.sca
scalar pimDMFinal.Host2.app\[0\]\s+packetReceived:count\s+20
