%description:
Testing the number of received multicast datagrams in examples/pim/iptv/ simulation.
%#--------------------------------------------------------------------------------------------------------------
%testprog: opp_run
%extraargs: -c PIM_DM
%#--------------------------------------------------------------------------------------------------------------
%inifile: omnetpp.ini

[General]
ned-path = .;../../../../src;../../../../examples
sim-time-limit = 35s
output-scalar-file = test.sca
**.app[*].packetSent*.scalar-recording = true
**.app[*].packetReceived*.scalar-recording = true
**.scalar-recording = false
**.vector-recording = false

**.configurator.config = xmldoc("../../../../examples/pim/iptv/networkConfig.xml")
**.ospf.ospfConfig = xmldoc("../../../../examples/pim/iptv/ASConfig.xml")

include ../../../../examples/pim/iptv/omnetpp.ini

%#--------------------------------------------------------------------------------------------------------------
%contains-regex: test.sca
scalar Network.server.app\[0\]\s+packetSent:count\s+250
%#--------------------------------------------------------------------------------------------------------------
%contains-regex: test.sca
scalar Network.client.app\[0\]\s+packetReceived:count\s+124
