%description:
Testing the number of received multicast datagrams in examples/pim/dm/ simulation.
%#--------------------------------------------------------------------------------------------------------------
%testprog: opp_run
%#--------------------------------------------------------------------------------------------------------------
%inifile: omnetpp.ini

[General]
ned-path = .;../../../../src;../../../../examples
sim-time-limit = 500s
output-scalar-file = test.sca
**.udpApp[*].sentPk*.scalar-recording = true
**.udpApp[*].rcvdPk*.scalar-recording = true
**.scalar-recording = false
**.vector-recording = false

**.configurator.config = xmldoc("../../../../examples/pim/dm/basic/networkConfig.xml")

include ../../../../examples/pim/dm/basic/omnetpp.ini

%#--------------------------------------------------------------------------------------------------------------
%contains-regex: test.sca
scalar pimDMFinal.Source1.udpApp\[0\]\s+sentPk:count\s+20
%#--------------------------------------------------------------------------------------------------------------
%contains-regex: test.sca
scalar pimDMFinal.Source2.udpApp\[0\]\s+sentPk:count\s+10
%#--------------------------------------------------------------------------------------------------------------
%contains-regex: test.sca
scalar pimDMFinal.Host2.udpApp\[0\]\s+rcvdPk:count\s+20
