%description:
Testing TCP communication speed
    TCP
    TcpNsc
%#--------------------------------------------------------------------------------------------------------------
%testprog: opp_run_dbg
%#--------------------------------------------------------------------------------------------------------------
%file: test.ned

import inet.networklayer.configurator.ipv4.Ipv4NetworkConfigurator;
import inet.node.inet.StandardHost;
import ned.DatarateChannel;


network UdpClientServer
{
    @display("bgb=232,193");
    types:
        channel C extends DatarateChannel
        {
            datarate = 10Mbps;
            delay = 0.1us;
        }
    submodules:
        host1: StandardHost {
            parameters:
                @display("p=53,67;i=device/pc3");
        }
        host2: StandardHost {
            parameters:
                @display("p=181,67;i=device/pc2");
        }
        host1snap: StandardHost {
            parameters:
                @display("p=53,67;i=device/pc3");
        }
        host2snap: StandardHost {
            parameters:
                @display("p=181,67;i=device/pc2");
        }
        configurator: Ipv4NetworkConfigurator {
            parameters:
                @display("p=109,142");
        }
    connections:
        host1.ethg++ <--> C <--> host2.ethg++;
        host1snap.ethg++ <--> C <--> host2snap.ethg++;
}

%#--------------------------------------------------------------------------------------------------------------
%inifile: omnetpp.ini

[General]
network = UdpClientServer
total-stack = 7MiB
#debug-on-errors = true
#record-eventlog = true
#**.vector-recording = false

sim-time-limit = 20s

## UDP apps
**.numApps = 2
**.app[0].typename = "UdpBasicApp"
**.app[0].destPort = 1234
**.host*snap.app[0].sendInterval = 1.719ms   #etherframe with snap and gap: 1074 bytes, 2 packets (sent, echoed): 1074*8/10000000*2 = 17.184ms
**.host*snap.app[0].stopTime = 17.19s
**.app[0].sendInterval = 1.706ms   #etherframe and gap: 1066 bytes, 2 packets (sent, echoed): 1066*8/10000000*2 = 17.056ms
**.app[0].startTime = 0s
**.app[0].stopTime = 17.06s
**.host1.app[0].destAddresses = "host2"
**.host2.app[0].destAddresses = "host1"
**.host1snap.app[0].destAddresses = "host2snap"
**.host2snap.app[0].destAddresses = "host1snap"
**.app[0].messageLength = 1000 bytes
**.app[1].typename = "UdpEchoApp"
**.app[1].localPort = 1234

**.host*snap.eth[*].useSNAP = true
**.host*.eth[*].queue.packetCapacity = 1

# Arp
**.arp.typename = "GlobalArp"

%#--------------------------------------------------------------------------------------------------------------
%postrun-command: Rscript check.r
%#--------------------------------------------------------------------------------------------------------------
%file: check.r
#!/usr/bin/env Rscript

options(echo=FALSE)
options(width=160)
library("omnetpp", warn.conflicts=FALSE)

#TEST parameters
scafile <- 'results/General-#0.sca'
linecount <- 4
packetSent   <- 10000
echoedPk <- 10000

# begin TEST:

dataset <- loadDataset(scafile)

cat("\nOMNETPP TEST RESULT:\n")

app <- dataset$scalars[grep("\\.host\\d\\w*\\.app\\[\\d\\]$",dataset$scalars$module),]
udpSent <- app[app$name == "packetSent:count",]
udpRcvd <- app[app$name == "echoedPk:count",]

cat("  UDP SPEED TEST RESULT:\n")

#print(udpSent)
cat("    UDP SENT ")
if(length(udpSent$value) == linecount & min(udpSent$value) >= packetSent)
{
    cat("OK\n")
} else {
    cat("BAD:\n")
    udpSent$rate = udpSent$value*100/packetSent
    print(udpSent[udpSent$value < packetSent,])
}

#print(udpRcvd)
cat("    UDP RCVD ")
if(length(udpRcvd$value) == linecount & min(udpRcvd$value) >= echoedPk)
{
    cat("OK\n")
} else {
    cat("BAD:\n")
    udpRcvd$rate = udpRcvd$value*100/packetSent
    print(udpRcvd[udpRcvd$value < echoedPk,])
}

cat("\n")

%#--------------------------------------------------------------------------------------------------------------
%contains: postrun-command(1).out

OMNETPP TEST RESULT:
  UDP SPEED TEST RESULT:
    UDP SENT OK
    UDP RCVD OK

%#--------------------------------------------------------------------------------------------------------------
