[General]
network = WiredAndWirelessHostsWithAP
sim-time-limit = 400s

**.addDefaultRoutes = false

**.*Host*.numApps = 3

**.*Host*.app[0].typename = "UdpEchoApp"
**.*Host*.app[0].localPort = 1000

**.*Host*.app[*].typename = "UdpBasicApp"
**.wiredHost1.app[1].destAddresses = "wirelessHost1"
**.wiredHost1.app[2].destAddresses = "wiredHost2"
**.wiredHost2.app[1].destAddresses = "wirelessHost1"
**.wiredHost2.app[2].destAddresses = "wiredHost1"
**.wirelessHost1.app[1].destAddresses = "wiredHost1"
**.wirelessHost1.app[2].destAddresses = "wiredHost2"
**.*Host*.app[1..].destPort = 1000
**.*Host*.app[1..].messageLength = 100B
**.*Host*.app[1..].sendInterval = 1s
**.*Host*.app[1..].stopTime = 300s

**.initialZ = 0m
