[General]
seed-set = 0
sim-time-limit = 20s
description = "abstract"

# enable time synchronization in all network nodes
*.*.hasTimeSynchronization = true

# all oscillators have a constant drift rate (specified with a random distribution for each one) 
# except for the master clocks, which have a random drift rate
#**.clock.oscillator.typename = "RandomDriftOscillator"
*.tsnClock.clock.oscillator.typename = "IdealOscillator"
**.oscillator.changeInterval = 12.5ms
**.oscillator.driftRate = uniform(-100ppm, 100ppm)
**.oscillator.driftRateChange = uniform(-1ppm, 1ppm)
**.oscillator.driftRateChangeUpperLimit = 100ppm
**.oscillator.driftRateChangeLowerLimit = -100ppm

**.kp=8
**.ki=7
**.offsetThreshold = 0 us


# all Ethernet interfaces have 100 Mbps speed
*.*.eth[*].bitrate = 100Mbps

*.visualizer.typename = "IntegratedMultiCanvasVisualizer"
*.visualizer.infoVisualizer[*].displayInfos = true

**.gptp.gptpNodeType = "BMCA_NODE"
**.gptp.slavePort = ""
**.gptp.masterPorts = []


[Config BMCA]
network = BmcaShowcaseSimple
description = "Showcase BMCA"

*.scenarioManager.script = xmldoc("simple-link-failure.xml")

# Uncomment these lines to test out of band time synchronization using the SimpleClockSynchronizer instead of gPTP
#*.tsnClock.gptp.typename = ""
#*.*.gptp.typename = "SimpleClockSynchronizer"
#*.*.gptp.synchronizationInterval = 0.125s
#*.*.gptp.masterClockModule = "^.^.tsnClock.clock"
#*.*.gptp.slaveClockModule = "^.clock"

*.tsnDevice1.clock.oscillator.typename = "IdealOscillator"
*.tsnSwitch.clock.typename = "InstantServoClock"
**.clock.adjustDrift = true
*.tsnDevice*.clock.typename = "InstantServoClock"


*.tsnDevice*.gptp.bmcaPorts = ["eth0"]
*.tsnSwitch.gptp.bmcaPorts = ["eth0", "eth1", "eth2"]

*.tsnDevice1.gptp.grandmasterPriority1 = 0
*.tsnDevice3.gptp.grandmasterPriority1 = 1


# Set all reference clocks to master clock so the time difference can be visualized
**.referenceClock = "tsnDevice1.clock"

# data link visualizer displays gPTP time synchronization packets
*.visualizer.dataLinkVisualizer[0].displayLinks = true
*.visualizer.dataLinkVisualizer[0].activityLevel = "protocol"
*.visualizer.dataLinkVisualizer[0].packetFilter = "GptpSync"
*.visualizer.dataLinkVisualizer[0].lineColor = "blue2"

*.visualizer.numInfoVisualizers = 3
*.visualizer.infoVisualizer[0].modules = "*.tsnClock.clock"
*.tsnDevice1.clock.displayStringTextFormat = "time: %T"
*.visualizer.infoVisualizer[1].modules = "*.tsnSwitch.clock"
*.visualizer.infoVisualizer[1].placementHint = "topLeft"
*.visualizer.infoVisualizer[2].modules = "*.tsnDevice*.clock"
*.visualizer.infoVisualizer[2].placementHint = "bottom"
*.tsnDevice*.clock.displayStringTextFormat = "diff: %d"
*.tsnSwitch.clock.displayStringTextFormat = "diff: %d"


[Config BmcaDiamond]
network = BmcaShowcaseDiamond
description = "Showcase BMCA with Diamond topology"

# Uncomment these lines to test out of band time synchronization using the SimpleClockSynchronizer instead of gPTP
#*.tsnClock.gptp.typename = ""
#*.*.gptp.typename = "SimpleClockSynchronizer"
#*.*.gptp.synchronizationInterval = 0.125s
#*.*.gptp.masterClockModule = "^.^.tsnClock.clock"
#*.*.gptp.slaveClockModule = "^.clock"

*.tsnDevice1.clock.oscillator.typename = "IdealOscillator"
*.tsnSwitch*.clock.typename = "InstantServoClock"
*.tsnDevice*.clock.typename = "InstantServoClock"

*.tsn*.gptp.bmcaPorts = ["eth0", "eth1"]

*.tsnDevice1.gptp.grandmasterPriority1 = 0


# Set all reference clocks to master clock so the time difference can be visualized
**.referenceClock = "tsnDevice1.clock"

# data link visualizer displays gPTP time synchronization packets
*.visualizer.dataLinkVisualizer[0].displayLinks = true
*.visualizer.dataLinkVisualizer[0].activityLevel = "protocol"
*.visualizer.dataLinkVisualizer[0].packetFilter = "GptpSync"
*.visualizer.dataLinkVisualizer[0].lineColor = "blue2"

*.visualizer.numInfoVisualizers = 3
*.visualizer.infoVisualizer[0].modules = "*.tsnClock.clock"
*.tsnDevice1.clock.displayStringTextFormat = "time: %T"
*.visualizer.infoVisualizer[1].modules = "*.tsnSwitch*.clock"
*.visualizer.infoVisualizer[1].placementHint = "topLeft"
*.visualizer.infoVisualizer[2].modules = "*.tsnDevice*.clock"
*.visualizer.infoVisualizer[2].placementHint = "bottom"
*.tsnDevice*.clock.displayStringTextFormat = "diff: %d"
*.tsnSwitch*.clock.displayStringTextFormat = "diff: %d"
