[General]
#debug-on-errors = true
sim-time-limit = 3000s
seed-0-mt = 5
#record-eventlog = true

network = inet.examples.manetrouting.net80211_aodv.Net80211_aodv

cmdenv-express-mode = true
tkenv-plugin-path = ../../../etc/plugins

description = "Aodv Simple test"

**.drawCoverage=false
**.constraintAreaMinX = 0m
**.constraintAreaMinY = 0m
**.constraintAreaMinZ = 0m
**.constraintAreaMaxX = 1000m
**.constraintAreaMaxY = 1000m
**.constraintAreaMaxZ = 0m
*.numFixHosts = 1
*.numHosts = 50
**.arpType = "GlobalARP"

# mobility
**.mobility.initFromDisplayString = false
**.fixhost[0].mobility.initialX = 999m
**.fixhost[0].mobility.initialY = 999m

**.host[0].mobility.initialX = 1m
**.host[0].mobility.initialY = 1m


**.host*.mobilityType = "StationaryMobility"

#**.SensitivityTable = xmldoc("sensitivityTable")
# udp apps (on)
**.host[0].numUdpApps = 1
**.host[*].udpApp[*].typename = "UDPBasicBurst"

**.udpApp[0].destAddresses = "fixhost[0]"
**.udpApp[0].localPort = 1234
**.udpApp[0].destPort = 1234
**.udpApp[0].messageLength = 512B  #
#**.udpApp[0].messageLength = 2000B  #
#**.udpApp[0].sendInterval = 0.2s + uniform(-0.001s,0.001s)
**.udpApp[0].sendInterval = 0.5s + uniform(-0.001s,0.001s)
**.udpApp[0].burstDuration = 0
**.udpApp[0].chooseDestAddrMode = "perBurst"
**.udpApp[0].sleepDuration = 1s
# **.udpApp[0].burstDuration = uniform(1s,4s,1)
# **.udpApp[0].stopTime = uniform(20s,40s,1)
##**.udpApp[0].startTime = uniform(0s,4s,1)
**.udpApp[0].startTime = 10s
**.udpApp[0].delayLimit = 20s
**.udpApp[0].destAddrRNG = 0

**.fixhost[0].udpApp[*].typename = "UDPSink"
**.fixhost[0].numUdpApps = 1
**.fixhost[0].udpApp[0].localPort = 1234

# tcp apps (off)
**.numTcpApps = 0
**.tcpAppType = "TelnetApp"

# ping app (host[0] pinged by others)
# ping app (off)
**.pingApp.count = 0
**.pingApp.startTime = 1s
**.pingApp.printPing = true

# tcp settings
**.tcp.mss = 1024
**.tcp.advertisedWindow = 14336  # 14*mss
#**.tcp.sendQueueClass = "TCPMsgBasedSendQueue"
#**.tcp.receiveQueueClass = "TCPMsgBasedRcvQueue"
**.tcp.tcpAlgorithmClass = "TCPReno"
**.tcp.recordStats = true

# ip settings
**.ip.procDelay = 10us
# **.forwarding=false


######################################################################
# manet routing
**.routingProtocol = "DSRUU"

#######################################################
**.llfeedback = true
# nic settings
**.wlan*.bitrate = 54Mbps

**.wlan*.typename="Ieee80211Nic"
**.wlan*.opMode="g"
**.wlan*.mac.EDCA = false
**.wlan*.mgmt.frameCapacity = 10
**.wlan*.mac.maxQueueSize = 14
**.wlan*.mac.rtsThresholdBytes = 3000B
**.wlan*.mac.basicBitrate = 6Mbps  # 24Mbps
**.wlan*.mac.retryLimit = 7
**.wlan*.mac.cwMinData = 31
**.wlan*.mac.cwMinBroadcast = 31

# channel physical parameters
*.radioMedium.mediumLimitCache.maxTransmissionPower = 2.0mW

**.wlan*.radio.transmitter.power = 2.0mW
**.wlan*.radio.receiver.energyDetection = -90dBm
**.wlan*.radio.receiver.sensitivity = -90dBm
**.wlan*.radio.receiver.errorModelType = "Ieee80211BerTableErrorModel"
**.wlan*.radio.receiver.errorModel.berTableFile = "per_table_80211g_Trivellato.dat"


**.broadcastDelay=uniform(0s,0.005s)

######################################################################
# manet routing
######################################################################

[Config DYMOUM]
**.routingProtocol="DYMOUM"

[Config DYMOFau]
**.routingProtocol="DYMOFau"

[Config AODVUU]
description = "Aodv Simple test"
**.routingProtocol="AODVUU"

[Config DSRUU]
**.routingProtocol="DSRUU"

[Config OLSR]
**.routingProtocol="OLSR"

[Config OLSR_ETX]
**.routingProtocol="OLSR_ETX"

[Config DSDV_2]
**.routingProtocol="DSDV_2"
**.manetrouting.RNGseed_DSDV = 0

[Config Batman]
**.routingProtocol="Batman"
