[General]
scheduler-class = "inet::RealTimeScheduler"
network = ExtPinger

cmdenv-express-mode = true
tkenv-default-run = 0

**.testing = false
**.testTimeout = 0s

**.networkConfiguratorModule = ""

**.ext[0].ext.filterString = "(sctp or icmp) and ip dst host 192.168.1.7"
**.ext[0].ext.device = "enp3s0" # Name of the gateway interface of the machine the simulation is running on
**.ext[0].ext.mtu = 1500B

**.crcMode = "computed"

sim-time-limit=50s

**.peer.numApps = 1
**.peer.app[0].typename = "PingApp"
**.peer.app[0].destAddr = "192.168.1.1"
**.peer.app[0].printPing = true

