[General]
scheduler-class = "inet::RealTimeScheduler"
network = ExtPingerExample
sim-time-limit = 10s

**.fcsMode = "computed"
**.crcMode = "computed"
**.networkConfiguratorModule = ""

*.peer.ipv4.routingTable.routingFile = "peer.mrt"

*.peer.numEthInterfaces = 1
*.peer.eth[0].typename = "ExtLowerEthernetInterface"
*.peer.eth[0].device = "veth0"
*.peer.eth[0].mtu = 1500B

*.peer.numApps = 1
*.peer.app[0].typename = "PingApp"
*.peer.app[0].destAddr = "192.168.2.2"
*.peer.app[0].printPing = true
