[General]
sim-time-limit = 10s

[Config SimulationTask]
network = SimulationTaskExampleNetwork

[Config SimulationContinuation]
network = SimulationContinuationExampleNetwork

[Config FunctionalEvent]
network = FunctionalEventExampleNetwork
