######################################################################################################
[Config Wireless01]
description = Two hosts communicating wirelessly
network = WirelessA
sim-time-limit = 25s

**.arpType = "GlobalARP"

*.hostA.numUdpApps = 1
*.hostA.udpApp[0].typename = "UDPBasicApp"
*.hostA.udpApp[0].destAddresses = "hostB"
*.hostA.udpApp[0].destPort = 5000
*.hostA.udpApp[0].messageLength = 1000B
*.hostA.udpApp[0].sendInterval = exponential(10ms)

*.hostB.numUdpApps = 1
*.hostB.udpApp[0].typename = "UDPSink"
*.hostB.udpApp[0].localPort = 5000

*.host*.wlan[*].typename = "IdealWirelessNic"
*.host*.wlan[*].mac.useAck = false
**.bitrate = 1Mbps
*.host*.wlan[*].radio.transmitter.maxCommunicationRange = 500m
*.host*.wlan[*].radio.receiver.ignoreInterference = true

######################################################################################################
[Config Wireless02]
description = Setting up some animations
extends = Wireless01

*.hostA.wlan[*].radio.displayCommunicationRange = true

*.visualizer.mediumVisualizer.displaySignals = true
*.visualizer.mediumVisualizer.signalPropagationUpdateInterval = 100ns
*.visualizer.physicalLinkVisualizer.packetNameFilter = "UDPBasicAppData-*"

######################################################################################################
[Config Wireless03]
description = Adding more nodes and decreasing the communication range
extends = Wireless02
network = WirelessB

*.host*.wlan[*].radio.transmitter.maxCommunicationRange = 250m

######################################################################################################
[Config Wireless04]
description = Setting up static routing
extends = Wireless03

*.host*.forwarding = true

*.configurator.config = xml("<config><interface hosts='**' address='10.0.0.x' netmask='255.255.255.0'/><autoroute metric='errorRate'/></config>")
*.configurator.optimizeRoutes = false
**.routingTable.netmaskRoutes = ""

*.visualizer.dataLinkVisualizer.packetNameFilter = "UDPBasicAppData-*"

######################################################################################################
[Config Wireless05]
description = Taking interference into account
extends = Wireless04

*.hostA.wlan[*].radio.displayInterferenceRange = true
*.hostR1.wlan[*].radio.displayCommunicationRange = true

*.host*.wlan[*].radio.receiver.ignoreInterference = false
*.host*.wlan[*].radio.transmitter.maxInterferenceRange = 500m

*.visualizer.physicalLinkVisualizer.packetNameFilter = ""
*.visualizer.dataLinkVisualizer.packetNameFilter = ""
*.visualizer.networkRouteVisualizer.packetNameFilter = "UDPBasicAppData-*"

######################################################################################################
[Config Wireless06]
description = Using CSMA to better utilize the medium
extends = Wireless05

*.host*.wlan[*].radio.displayInterferenceRange = false
*.host*.wlan[*].radio.displayCommunicationRange = false

*.host*.wlan[*].typename = "WirelessNic"
*.host*.wlan[*].radioType = "IdealRadio"
*.host*.wlan[*].macType = "CSMA"
*.host*.wlan[*].mac.useMACAcks = false

######################################################################################################
[Config Wireless07]
description = Turning on ACKs in CSMA
extends = Wireless06

*.host*.wlan[*].mac.useMACAcks = true

######################################################################################################
[Config Wireless08]
description = Configuring node movements
extends = Wireless07

*.visualizer.mediumVisualizer.displaySignals = false
*.visualizer.mobilityVisualizer.displayMovementTrail = true

*.hostR*.mobilityType = "LinearMobility"
*.hostR*.mobility.speed = 12mps
*.hostR*.mobility.angle = 270deg


######################################################################################################
[Config Wireless09]
description = Configuring ad-hoc routing (AODV)
extends = Wireless08

*.configurator.addStaticRoutes = false
*.configurator.addDefaultRoutes = false
*.configurator.addSubnetRoutes = false

*.hostType = "AODVRouter"

######################################################################################################
[Config Wireless10]
description = Modeling energy consumption
extends = Wireless09

**.energyConsumerType = "StateBasedEnergyConsumer"
*.host*.energyStorageType = "IdealEnergyStorage"

######################################################################################################
[Config Wireless11]
description = Adding obstacles to the environment
extends = Wireless10
network = WirelessC

*.physicalEnvironment.objectCacheType = ""

*.physicalEnvironment.config = xmldoc("walls.xml")
*.radioMedium.obstacleLossType = "IdealObstacleLoss"
*.visualizer.obstacleLossVisualizerType = ""

######################################################################################################
[Config Wireless12]
description = Changing to a more realistic radio model
extends = Wireless11

*.mediumType = "APSKScalarRadioMedium"
*.radioMedium.backgroundNoise.power = -110dBm
*.radioMedium.mediumLimitCache.carrierFrequency = 2GHz

*.host*.wlan[*].radioType = "APSKScalarRadio"
*.host*.wlan[*].radio.carrierFrequency = 2GHz
*.host*.wlan[*].radio.bandwidth = 2MHz
*.host*.wlan[*].radio.transmitter.power = 1.2mW
*.host*.wlan[*].radio.transmitter.preambleDuration = 0s
*.host*.wlan[*].radio.transmitter.headerBitLength = 100b
*.host*.wlan[*].radio.receiver.sensitivity = -85dBm
*.host*.wlan[*].radio.receiver.energyDetection = -85dBm
*.host*.wlan[*].radio.receiver.snirThreshold = 4dB

######################################################################################################
[Config Wireless13]
description = Configuring a more accurate pathloss model
extends = Wireless12

*.physicalEnvironment.groundType = "FlatGround"
*.physicalEnvironment.ground.elevation = -1m

*.radioMedium.pathLossType = "TwoRayGroundReflection"

######################################################################################################
[Config Wireless14]
description = Introducing antenna gain
extends = Wireless13

*.host*.wlan[*].radio.antennaType = "ConstantGainAntenna"
*.host*.wlan[*].radio.antenna.gain = 12dB

######################################################################################################

