[General]
network = LoRaNetworkTest
rng-class = "cMersenneTwister"

# network features
**.numberOfGateways = 1
**.loRaGW[0].numUdpApps = 1
**.loRaGW[0].packetForwarder.localPort = 2000
**.loRaGW[0].packetForwarder.destPort = 1000
**.loRaGW[0].packetForwarder.destAddresses = "networkServer"
**.loRaGW[0].packetForwarder.indexNumber = 0

**.loRaGW[1].numUdpApps = 1
**.loRaGW[1].packetForwarder.localPort = 2000
**.loRaGW[1].packetForwarder.destPort = 1000
**.loRaGW[1].packetForwarder.destAddresses = "networkServer"
**.loRaGW[1].packetForwarder.indexNumber = 1

**.networkServer.numApps = 1
**.networkServer.**.evaluateADRinServer = false
**.networkServer.app[0].typename = "NetworkServerApp"
**.networkServer.app[0].destAddresses = "loRaGW[0]"
**.networkServer.app[0].destPort = 2000
**.networkServer.app[0].localPort = 1000
**.networkServer.app[0].adrMethod = ${"avg"}

**.numberOfNodes = 10
**.numberOfPacketsToSend = 0 #0 means infinite number of packets
sim-time-limit = 7d
warmup-period = 1d
simtime-resolution = -11

**.timeToFirstPacket = exponential(100s)
**.timeToNextPacket = exponential(100s)
**.alohaChannelModel = false

#nodes features
**.loRaNodes[*].**.initFromDisplayString = false
**.loRaNodes[*].**.evaluateADRinNode = false
**.loRaNodes[*].**initialLoRaSF = intuniform(7,12)
**.loRaNodes[*].**initialLoRaBW = 125kHz
**.loRaNodes[*].**initialLoRaCR = 4
**.loRaNodes[*].**initialLoRaTP = dBm(2 + 3*intuniform(0, 4))

# deployment of nodes in a circle with radius=maxGatewayDistance and gateway at gatewayX,gatewayY
#**.loRaNodes[*].deploymentType = "circle"
#**.loRaNodes[*].maxGatewayDistance = 120.0
#**.loRaNodes[*].gatewayX = 240
#**.loRaNodes[*].gatewayY = 240

# random deployment of nodes in a square square area
**.loRaNodes[*].**.initialX = uniform(0m, 480m)
**.loRaNodes[*].**.initialY = uniform(0m, 480m)

#gateway features
**.LoRaGWNic.radio.iAmGateway = true
**.loRaGW[*].**.initFromDisplayString = false
**.loRaGW[0].**.initialX = 240m#uniform(0m, 50m)
**.loRaGW[0].**.initialY = 240m

#power consumption features
**.loRaNodes[*].LoRaNic.radio.energyConsumerType = "LoRaEnergyConsumer"
**.loRaNodes[*].**.energySourceModule = "IdealEpEnergyStorage"
**.loRaNodes[*].LoRaNic.radio.energyConsumer.configFile = xmldoc("energyConsumptionParameters.xml")

**.energySourceModule = ""

#general features
**.sigma = 0
**.constraintAreaMinX = 0m
**.constraintAreaMinY = 0m
**.constraintAreaMinZ = 0m
**.constraintAreaMaxX = 480m
**.constraintAreaMaxY = 480m
**.constraintAreaMaxZ = 0m

LoRaNetworkTest.**.radio.separateTransmissionParts = false
LoRaNetworkTest.**.radio.separateReceptionParts = false

**.internetCloud.ipv4Delayer.config = xmldoc("cloudDelays.xml")
**.radio.radioMediumModule = "LoRaMedium"
**.LoRaMedium.pathLossType = "LoRaLogNormalShadowing"
**.minInterferenceTime = 0s
**.displayAddresses = false
