<?xml version="1.0" encoding="iso-8859-1"?>

<configuration xmlns:xsi="http://www.w3.org/2001/XMLSchema-instance" xsi:noNamespaceSchemaLocation="http://sumo.sf.net/xsd/netconvertConfiguration.xsd">

    <input>
        <node-files value="net.nod.xml"/>
        <edge-files value="net.edg.xml"/>
	<tls.set value="10"/>
	<tls.green.time value="999"/>
	<tls.yellow.time value="1"/>
    </input>

    <output>
        <output-file value="net.net.xml"/>
    </output>

</configuration>
