<?xml version="1.0" encoding="iso-8859-1"?>

<!-- generated on Wed Sep 21 20:28:32 2011 by SUMO netconvert Version 0.13.0
<?xml version="1.0" encoding="iso-8859-1"?>

<configuration xmlns:xsi="http://www.w3.org/2001/XMLSchema-instance" xsi:noNamespaceSchemaLocation="http://sumo.sf.net/xsd/netconvertConfiguration.xsd">

    <input>
        <node-files value="net.nod.xml"/>
        <edge-files value="net.edg.xml"/>
    </input>

    <output>
        <output-file value="net.net.xml"/>
    </output>

    <tls_building>
        <tls.set value="10"/>
        <tls.green.time value="999"/>
        <tls.yellow.time value="1"/>
    </tls_building>

</configuration>
-->

<net version="0.13" xmlns:xsi="http://www.w3.org/2001/XMLSchema-instance" xsi:noNamespaceSchemaLocation="http://sumo.sf.net/xsd/net_file.xsd">

    <location netOffset="0.00,1.65" convBoundary="0.00,0.00,1100.00,101.65" origBoundary="0.00,-1.65,1100.00,100.00" projParameter="!"/>

    <edge id=":10_0" function="internal">
        <lane id=":10_0_0" index="0" speed="24.75" length="6.19" shape="301.65,45.82 301.83,48.06 302.37,49.51 303.27,50.18 304.54,50.07"/>
    </edge>
    <edge id=":10_1" function="internal">
        <lane id=":10_1_0" index="0" speed="21.72" length="9.33" shape="301.65,45.82 301.65,55.15"/>
    </edge>
    <edge id=":10_2" function="internal">
        <lane id=":10_2_0" index="0" speed="21.72" length="1.65" shape="301.65,45.82 300.00,45.82"/>
    </edge>
    <edge id=":10_9" function="internal">
        <lane id=":10_9_0" index="0" speed="21.72" length="1.65" shape="300.00,45.82 298.35,45.82"/>
    </edge>
    <edge id=":10_3" function="internal">
        <lane id=":10_3_0" index="0" speed="24.75" length="6.19" shape="295.46,50.07 296.73,50.18 297.63,49.51 298.17,48.06 298.35,45.82"/>
    </edge>
    <edge id=":10_4" function="internal">
        <lane id=":10_4_0" index="0" speed="27.78" length="9.07" shape="295.46,50.07 304.54,50.07"/>
    </edge>
    <edge id=":10_5" function="internal">
        <lane id=":10_5_0" index="0" speed="24.75" length="8.44" shape="295.46,50.07 298.17,51.20 300.10,52.42 301.26,53.73 301.65,55.15"/>
    </edge>
    <edge id=":10_6" function="internal">
        <lane id=":10_6_0" index="0" speed="21.72" length="9.33" shape="298.35,55.15 298.35,45.82"/>
    </edge>
    <edge id=":10_7" function="internal">
        <lane id=":10_7_0" index="0" speed="24.75" length="8.44" shape="298.35,55.15 298.74,53.73 299.90,52.42 301.83,51.20 304.54,50.07"/>
    </edge>
    <edge id=":10_8" function="internal">
        <lane id=":10_8_0" index="0" speed="21.72" length="1.65" shape="298.35,55.15 300.00,55.15"/>
    </edge>
    <edge id=":10_10" function="internal">
        <lane id=":10_10_0" index="0" speed="21.72" length="1.65" shape="300.00,55.15 301.65,55.15"/>
    </edge>
    <edge id=":11_0" function="internal">
        <lane id=":11_0_0" index="0" speed="21.97" length="6.19" shape="301.65,95.82 301.83,98.06 302.37,99.51 303.27,100.18 304.54,100.07"/>
    </edge>
    <edge id=":11_1" function="internal">
        <lane id=":11_1_0" index="0" speed="21.72" length="3.30" shape="301.65,95.82 298.35,95.82"/>
    </edge>
    <edge id=":11_2" function="internal">
        <lane id=":11_2_0" index="0" speed="21.97" length="6.19" shape="295.46,100.07 296.73,100.18 297.63,99.51 298.17,98.06 298.35,95.82"/>
    </edge>
    <edge id=":11_3" function="internal">
        <lane id=":11_3_0" index="0" speed="22.22" length="9.07" shape="295.46,100.07 304.54,100.07"/>
    </edge>
    <edge id=":12_0" function="internal">
        <lane id=":12_0_0" index="0" speed="22.22" length="8.02" shape="395.99,0.26 404.01,0.26"/>
    </edge>
    <edge id=":12_1" function="internal">
        <lane id=":12_1_0" index="0" speed="21.97" length="7.92" shape="395.99,0.26 398.47,1.30 400.23,2.46 401.30,3.75 401.65,5.15"/>
    </edge>
    <edge id=":12_2" function="internal">
        <lane id=":12_2_0" index="0" speed="21.97" length="7.92" shape="398.35,5.15 398.70,3.75 399.77,2.46 401.53,1.30 404.01,0.26"/>
    </edge>
    <edge id=":12_3" function="internal">
        <lane id=":12_3_0" index="0" speed="21.72" length="3.30" shape="398.35,5.15 401.65,5.15"/>
    </edge>
    <edge id=":13_0" function="internal">
        <lane id=":13_0_0" index="0" speed="24.75" length="6.19" shape="401.65,45.82 401.83,48.06 402.37,49.51 403.27,50.18 404.54,50.07"/>
    </edge>
    <edge id=":13_1" function="internal">
        <lane id=":13_1_0" index="0" speed="21.72" length="9.33" shape="401.65,45.82 401.65,55.15"/>
    </edge>
    <edge id=":13_2" function="internal">
        <lane id=":13_2_0" index="0" speed="21.72" length="3.30" shape="401.65,45.82 398.35,45.82"/>
    </edge>
    <edge id=":13_3" function="internal">
        <lane id=":13_3_0" index="0" speed="24.75" length="6.19" shape="395.46,50.07 396.73,50.18 397.63,49.51 398.17,48.06 398.35,45.82"/>
    </edge>
    <edge id=":13_4" function="internal">
        <lane id=":13_4_0" index="0" speed="27.78" length="9.07" shape="395.46,50.07 404.54,50.07"/>
    </edge>
    <edge id=":13_5" function="internal">
        <lane id=":13_5_0" index="0" speed="24.75" length="8.44" shape="395.46,50.07 398.17,51.20 400.10,52.42 401.26,53.73 401.65,55.15"/>
    </edge>
    <edge id=":13_6" function="internal">
        <lane id=":13_6_0" index="0" speed="21.72" length="9.33" shape="398.35,55.15 398.35,45.82"/>
    </edge>
    <edge id=":13_7" function="internal">
        <lane id=":13_7_0" index="0" speed="24.75" length="8.44" shape="398.35,55.15 398.74,53.73 399.90,52.42 401.83,51.20 404.54,50.07"/>
    </edge>
    <edge id=":13_8" function="internal">
        <lane id=":13_8_0" index="0" speed="21.72" length="3.30" shape="398.35,55.15 401.65,55.15"/>
    </edge>
    <edge id=":14_0" function="internal">
        <lane id=":14_0_0" index="0" speed="21.97" length="6.19" shape="401.65,95.82 401.83,98.06 402.37,99.51 403.27,100.18 404.54,100.07"/>
    </edge>
    <edge id=":14_1" function="internal">
        <lane id=":14_1_0" index="0" speed="21.72" length="3.30" shape="401.65,95.82 398.35,95.82"/>
    </edge>
    <edge id=":14_2" function="internal">
        <lane id=":14_2_0" index="0" speed="21.97" length="6.19" shape="395.46,100.07 396.73,100.18 397.63,99.51 398.17,98.06 398.35,95.82"/>
    </edge>
    <edge id=":14_3" function="internal">
        <lane id=":14_3_0" index="0" speed="22.22" length="9.07" shape="395.46,100.07 404.54,100.07"/>
    </edge>
    <edge id=":15_0" function="internal">
        <lane id=":15_0_0" index="0" speed="22.22" length="8.02" shape="495.99,0.26 504.01,0.26"/>
    </edge>
    <edge id=":15_1" function="internal">
        <lane id=":15_1_0" index="0" speed="21.97" length="7.92" shape="495.99,0.26 498.47,1.30 500.23,2.46 501.30,3.75 501.65,5.15"/>
    </edge>
    <edge id=":15_2" function="internal">
        <lane id=":15_2_0" index="0" speed="21.97" length="7.92" shape="498.35,5.15 498.70,3.75 499.77,2.46 501.53,1.30 504.01,0.26"/>
    </edge>
    <edge id=":15_3" function="internal">
        <lane id=":15_3_0" index="0" speed="21.72" length="3.30" shape="498.35,5.15 501.65,5.15"/>
    </edge>
    <edge id=":16_0" function="internal">
        <lane id=":16_0_0" index="0" speed="24.75" length="6.19" shape="501.65,45.82 501.83,48.06 502.37,49.51 503.27,50.18 504.54,50.07"/>
    </edge>
    <edge id=":16_1" function="internal">
        <lane id=":16_1_0" index="0" speed="21.72" length="9.33" shape="501.65,45.82 501.65,55.15"/>
    </edge>
    <edge id=":16_2" function="internal">
        <lane id=":16_2_0" index="0" speed="21.72" length="3.30" shape="501.65,45.82 498.35,45.82"/>
    </edge>
    <edge id=":16_3" function="internal">
        <lane id=":16_3_0" index="0" speed="24.75" length="6.19" shape="495.46,50.07 496.73,50.18 497.63,49.51 498.17,48.06 498.35,45.82"/>
    </edge>
    <edge id=":16_4" function="internal">
        <lane id=":16_4_0" index="0" speed="27.78" length="9.07" shape="495.46,50.07 504.54,50.07"/>
    </edge>
    <edge id=":16_5" function="internal">
        <lane id=":16_5_0" index="0" speed="24.75" length="8.44" shape="495.46,50.07 498.17,51.20 500.10,52.42 501.26,53.73 501.65,55.15"/>
    </edge>
    <edge id=":16_6" function="internal">
        <lane id=":16_6_0" index="0" speed="21.72" length="9.33" shape="498.35,55.15 498.35,45.82"/>
    </edge>
    <edge id=":16_7" function="internal">
        <lane id=":16_7_0" index="0" speed="24.75" length="8.44" shape="498.35,55.15 498.74,53.73 499.90,52.42 501.83,51.20 504.54,50.07"/>
    </edge>
    <edge id=":16_8" function="internal">
        <lane id=":16_8_0" index="0" speed="21.72" length="3.30" shape="498.35,55.15 501.65,55.15"/>
    </edge>
    <edge id=":17_0" function="internal">
        <lane id=":17_0_0" index="0" speed="21.97" length="6.19" shape="501.65,95.82 501.83,98.06 502.37,99.51 503.27,100.18 504.54,100.07"/>
    </edge>
    <edge id=":17_1" function="internal">
        <lane id=":17_1_0" index="0" speed="21.72" length="3.30" shape="501.65,95.82 498.35,95.82"/>
    </edge>
    <edge id=":17_2" function="internal">
        <lane id=":17_2_0" index="0" speed="21.97" length="6.19" shape="495.46,100.07 496.73,100.18 497.63,99.51 498.17,98.06 498.35,95.82"/>
    </edge>
    <edge id=":17_3" function="internal">
        <lane id=":17_3_0" index="0" speed="22.22" length="9.07" shape="495.46,100.07 504.54,100.07"/>
    </edge>
    <edge id=":18_0" function="internal">
        <lane id=":18_0_0" index="0" speed="22.22" length="8.02" shape="595.99,0.26 604.01,0.26"/>
    </edge>
    <edge id=":18_1" function="internal">
        <lane id=":18_1_0" index="0" speed="21.97" length="7.92" shape="595.99,0.26 598.47,1.30 600.23,2.46 601.30,3.75 601.65,5.15"/>
    </edge>
    <edge id=":18_2" function="internal">
        <lane id=":18_2_0" index="0" speed="21.97" length="7.92" shape="598.35,5.15 598.70,3.75 599.77,2.46 601.53,1.30 604.01,0.26"/>
    </edge>
    <edge id=":18_3" function="internal">
        <lane id=":18_3_0" index="0" speed="21.72" length="3.30" shape="598.35,5.15 601.65,5.15"/>
    </edge>
    <edge id=":19_0" function="internal">
        <lane id=":19_0_0" index="0" speed="24.75" length="6.19" shape="601.65,45.82 601.83,48.06 602.37,49.51 603.27,50.18 604.54,50.07"/>
    </edge>
    <edge id=":19_1" function="internal">
        <lane id=":19_1_0" index="0" speed="21.72" length="9.33" shape="601.65,45.82 601.65,55.15"/>
    </edge>
    <edge id=":19_2" function="internal">
        <lane id=":19_2_0" index="0" speed="21.72" length="3.30" shape="601.65,45.82 598.35,45.82"/>
    </edge>
    <edge id=":19_3" function="internal">
        <lane id=":19_3_0" index="0" speed="24.75" length="6.19" shape="595.46,50.07 596.73,50.18 597.63,49.51 598.17,48.06 598.35,45.82"/>
    </edge>
    <edge id=":19_4" function="internal">
        <lane id=":19_4_0" index="0" speed="27.78" length="9.07" shape="595.46,50.07 604.54,50.07"/>
    </edge>
    <edge id=":19_5" function="internal">
        <lane id=":19_5_0" index="0" speed="24.75" length="8.44" shape="595.46,50.07 598.17,51.20 600.10,52.42 601.26,53.73 601.65,55.15"/>
    </edge>
    <edge id=":19_6" function="internal">
        <lane id=":19_6_0" index="0" speed="21.72" length="9.33" shape="598.35,55.15 598.35,45.82"/>
    </edge>
    <edge id=":19_7" function="internal">
        <lane id=":19_7_0" index="0" speed="24.75" length="8.44" shape="598.35,55.15 598.74,53.73 599.90,52.42 601.83,51.20 604.54,50.07"/>
    </edge>
    <edge id=":19_8" function="internal">
        <lane id=":19_8_0" index="0" speed="21.72" length="3.30" shape="598.35,55.15 601.65,55.15"/>
    </edge>
    <edge id=":20_0" function="internal">
        <lane id=":20_0_0" index="0" speed="21.97" length="6.19" shape="601.65,95.82 601.83,98.06 602.37,99.51 603.27,100.18 604.54,100.07"/>
    </edge>
    <edge id=":20_1" function="internal">
        <lane id=":20_1_0" index="0" speed="21.72" length="3.30" shape="601.65,95.82 598.35,95.82"/>
    </edge>
    <edge id=":20_2" function="internal">
        <lane id=":20_2_0" index="0" speed="21.97" length="6.19" shape="595.46,100.07 596.73,100.18 597.63,99.51 598.17,98.06 598.35,95.82"/>
    </edge>
    <edge id=":20_3" function="internal">
        <lane id=":20_3_0" index="0" speed="22.22" length="9.07" shape="595.46,100.07 604.54,100.07"/>
    </edge>
    <edge id=":21_0" function="internal">
        <lane id=":21_0_0" index="0" speed="22.22" length="8.02" shape="695.99,0.26 704.01,0.26"/>
    </edge>
    <edge id=":21_1" function="internal">
        <lane id=":21_1_0" index="0" speed="21.97" length="7.92" shape="695.99,0.26 698.47,1.30 700.23,2.46 701.30,3.75 701.65,5.15"/>
    </edge>
    <edge id=":21_2" function="internal">
        <lane id=":21_2_0" index="0" speed="21.97" length="7.92" shape="698.35,5.15 698.70,3.75 699.77,2.46 701.53,1.30 704.01,0.26"/>
    </edge>
    <edge id=":21_3" function="internal">
        <lane id=":21_3_0" index="0" speed="21.72" length="3.30" shape="698.35,5.15 701.65,5.15"/>
    </edge>
    <edge id=":22_0" function="internal">
        <lane id=":22_0_0" index="0" speed="24.75" length="6.19" shape="701.65,45.82 701.83,48.06 702.37,49.51 703.27,50.18 704.54,50.07"/>
    </edge>
    <edge id=":22_1" function="internal">
        <lane id=":22_1_0" index="0" speed="21.72" length="9.33" shape="701.65,45.82 701.65,55.15"/>
    </edge>
    <edge id=":22_2" function="internal">
        <lane id=":22_2_0" index="0" speed="21.72" length="3.30" shape="701.65,45.82 698.35,45.82"/>
    </edge>
    <edge id=":22_3" function="internal">
        <lane id=":22_3_0" index="0" speed="24.75" length="6.19" shape="695.46,50.07 696.73,50.18 697.63,49.51 698.17,48.06 698.35,45.82"/>
    </edge>
    <edge id=":22_4" function="internal">
        <lane id=":22_4_0" index="0" speed="27.78" length="9.07" shape="695.46,50.07 704.54,50.07"/>
    </edge>
    <edge id=":22_5" function="internal">
        <lane id=":22_5_0" index="0" speed="24.75" length="8.44" shape="695.46,50.07 698.17,51.20 700.10,52.42 701.26,53.73 701.65,55.15"/>
    </edge>
    <edge id=":22_6" function="internal">
        <lane id=":22_6_0" index="0" speed="21.72" length="9.33" shape="698.35,55.15 698.35,45.82"/>
    </edge>
    <edge id=":22_7" function="internal">
        <lane id=":22_7_0" index="0" speed="24.75" length="8.44" shape="698.35,55.15 698.74,53.73 699.90,52.42 701.83,51.20 704.54,50.07"/>
    </edge>
    <edge id=":22_8" function="internal">
        <lane id=":22_8_0" index="0" speed="21.72" length="3.30" shape="698.35,55.15 701.65,55.15"/>
    </edge>
    <edge id=":23_0" function="internal">
        <lane id=":23_0_0" index="0" speed="21.97" length="6.19" shape="701.65,95.82 701.83,98.06 702.37,99.51 703.27,100.18 704.54,100.07"/>
    </edge>
    <edge id=":23_1" function="internal">
        <lane id=":23_1_0" index="0" speed="21.72" length="3.30" shape="701.65,95.82 698.35,95.82"/>
    </edge>
    <edge id=":23_2" function="internal">
        <lane id=":23_2_0" index="0" speed="21.97" length="6.19" shape="695.46,100.07 696.73,100.18 697.63,99.51 698.17,98.06 698.35,95.82"/>
    </edge>
    <edge id=":23_3" function="internal">
        <lane id=":23_3_0" index="0" speed="22.22" length="9.07" shape="695.46,100.07 704.54,100.07"/>
    </edge>
    <edge id=":24_0" function="internal">
        <lane id=":24_0_0" index="0" speed="22.22" length="8.02" shape="795.99,0.26 804.01,0.26"/>
    </edge>
    <edge id=":24_1" function="internal">
        <lane id=":24_1_0" index="0" speed="21.97" length="7.92" shape="795.99,0.26 798.47,1.30 800.23,2.46 801.30,3.75 801.65,5.15"/>
    </edge>
    <edge id=":24_2" function="internal">
        <lane id=":24_2_0" index="0" speed="21.97" length="7.92" shape="798.35,5.15 798.70,3.75 799.77,2.46 801.53,1.30 804.01,0.26"/>
    </edge>
    <edge id=":24_3" function="internal">
        <lane id=":24_3_0" index="0" speed="21.72" length="3.30" shape="798.35,5.15 801.65,5.15"/>
    </edge>
    <edge id=":25_0" function="internal">
        <lane id=":25_0_0" index="0" speed="24.75" length="6.19" shape="801.65,45.82 801.83,48.06 802.37,49.51 803.27,50.18 804.54,50.07"/>
    </edge>
    <edge id=":25_1" function="internal">
        <lane id=":25_1_0" index="0" speed="21.72" length="9.33" shape="801.65,45.82 801.65,55.15"/>
    </edge>
    <edge id=":25_2" function="internal">
        <lane id=":25_2_0" index="0" speed="21.72" length="3.30" shape="801.65,45.82 798.35,45.82"/>
    </edge>
    <edge id=":25_3" function="internal">
        <lane id=":25_3_0" index="0" speed="24.75" length="6.19" shape="795.46,50.07 796.73,50.18 797.63,49.51 798.17,48.06 798.35,45.82"/>
    </edge>
    <edge id=":25_4" function="internal">
        <lane id=":25_4_0" index="0" speed="27.78" length="9.07" shape="795.46,50.07 804.54,50.07"/>
    </edge>
    <edge id=":25_5" function="internal">
        <lane id=":25_5_0" index="0" speed="24.75" length="8.44" shape="795.46,50.07 798.17,51.20 800.10,52.42 801.26,53.73 801.65,55.15"/>
    </edge>
    <edge id=":25_6" function="internal">
        <lane id=":25_6_0" index="0" speed="21.72" length="9.33" shape="798.35,55.15 798.35,45.82"/>
    </edge>
    <edge id=":25_7" function="internal">
        <lane id=":25_7_0" index="0" speed="24.75" length="8.44" shape="798.35,55.15 798.74,53.73 799.90,52.42 801.83,51.20 804.54,50.07"/>
    </edge>
    <edge id=":25_8" function="internal">
        <lane id=":25_8_0" index="0" speed="21.72" length="3.30" shape="798.35,55.15 801.65,55.15"/>
    </edge>
    <edge id=":26_0" function="internal">
        <lane id=":26_0_0" index="0" speed="21.97" length="6.19" shape="801.65,95.82 801.83,98.06 802.37,99.51 803.27,100.18 804.54,100.07"/>
    </edge>
    <edge id=":26_1" function="internal">
        <lane id=":26_1_0" index="0" speed="21.72" length="3.30" shape="801.65,95.82 798.35,95.82"/>
    </edge>
    <edge id=":26_2" function="internal">
        <lane id=":26_2_0" index="0" speed="21.97" length="6.19" shape="795.46,100.07 796.73,100.18 797.63,99.51 798.17,98.06 798.35,95.82"/>
    </edge>
    <edge id=":26_3" function="internal">
        <lane id=":26_3_0" index="0" speed="22.22" length="9.07" shape="795.46,100.07 804.54,100.07"/>
    </edge>
    <edge id=":27_0" function="internal">
        <lane id=":27_0_0" index="0" speed="22.22" length="8.02" shape="895.99,0.26 904.01,0.26"/>
    </edge>
    <edge id=":27_1" function="internal">
        <lane id=":27_1_0" index="0" speed="21.97" length="7.92" shape="895.99,0.26 898.47,1.30 900.23,2.46 901.30,3.75 901.65,5.15"/>
    </edge>
    <edge id=":27_2" function="internal">
        <lane id=":27_2_0" index="0" speed="21.97" length="7.92" shape="898.35,5.15 898.70,3.75 899.77,2.46 901.53,1.30 904.01,0.26"/>
    </edge>
    <edge id=":27_3" function="internal">
        <lane id=":27_3_0" index="0" speed="21.72" length="3.30" shape="898.35,5.15 901.65,5.15"/>
    </edge>
    <edge id=":28_0" function="internal">
        <lane id=":28_0_0" index="0" speed="24.75" length="6.19" shape="901.65,45.82 901.83,48.06 902.37,49.51 903.27,50.18 904.54,50.07"/>
    </edge>
    <edge id=":28_1" function="internal">
        <lane id=":28_1_0" index="0" speed="21.72" length="9.33" shape="901.65,45.82 901.65,55.15"/>
    </edge>
    <edge id=":28_2" function="internal">
        <lane id=":28_2_0" index="0" speed="21.72" length="3.30" shape="901.65,45.82 898.35,45.82"/>
    </edge>
    <edge id=":28_3" function="internal">
        <lane id=":28_3_0" index="0" speed="24.75" length="6.19" shape="895.46,50.07 896.73,50.18 897.63,49.51 898.17,48.06 898.35,45.82"/>
    </edge>
    <edge id=":28_4" function="internal">
        <lane id=":28_4_0" index="0" speed="27.78" length="9.07" shape="895.46,50.07 904.54,50.07"/>
    </edge>
    <edge id=":28_5" function="internal">
        <lane id=":28_5_0" index="0" speed="24.75" length="8.44" shape="895.46,50.07 898.17,51.20 900.10,52.42 901.26,53.73 901.65,55.15"/>
    </edge>
    <edge id=":28_6" function="internal">
        <lane id=":28_6_0" index="0" speed="21.72" length="9.33" shape="898.35,55.15 898.35,45.82"/>
    </edge>
    <edge id=":28_7" function="internal">
        <lane id=":28_7_0" index="0" speed="24.75" length="8.44" shape="898.35,55.15 898.74,53.73 899.90,52.42 901.83,51.20 904.54,50.07"/>
    </edge>
    <edge id=":28_8" function="internal">
        <lane id=":28_8_0" index="0" speed="21.72" length="3.30" shape="898.35,55.15 901.65,55.15"/>
    </edge>
    <edge id=":29_0" function="internal">
        <lane id=":29_0_0" index="0" speed="21.97" length="6.19" shape="901.65,95.82 901.83,98.06 902.37,99.51 903.27,100.18 904.54,100.07"/>
    </edge>
    <edge id=":29_1" function="internal">
        <lane id=":29_1_0" index="0" speed="21.72" length="3.30" shape="901.65,95.82 898.35,95.82"/>
    </edge>
    <edge id=":29_2" function="internal">
        <lane id=":29_2_0" index="0" speed="21.97" length="6.19" shape="895.46,100.07 896.73,100.18 897.63,99.51 898.17,98.06 898.35,95.82"/>
    </edge>
    <edge id=":29_3" function="internal">
        <lane id=":29_3_0" index="0" speed="22.22" length="9.07" shape="895.46,100.07 904.54,100.07"/>
    </edge>
    <edge id=":3_0" function="internal">
        <lane id=":3_0_0" index="0" speed="21.97" length="6.90" shape="98.35,3.81 98.70,2.99 99.77,2.13 101.53,1.22 104.01,0.26"/>
    </edge>
    <edge id=":3_1" function="internal">
        <lane id=":3_1_0" index="0" speed="21.72" length="3.56" shape="98.35,3.81 101.65,5.15"/>
    </edge>
    <edge id=":30_0" function="internal">
        <lane id=":30_0_0" index="0" speed="21.97" length="6.90" shape="995.99,0.26 998.47,1.22 1000.23,2.13 1001.30,2.99 1001.65,3.81"/>
    </edge>
    <edge id=":30_1" function="internal">
        <lane id=":30_1_0" index="0" speed="21.72" length="3.56" shape="998.35,5.15 1001.65,3.81"/>
    </edge>
    <edge id=":31_0" function="internal">
        <lane id=":31_0_0" index="0" speed="24.75" length="6.19" shape="1001.65,45.82 1001.83,48.06 1002.37,49.51 1003.27,50.18 1004.54,50.07"/>
    </edge>
    <edge id=":31_1" function="internal">
        <lane id=":31_1_0" index="0" speed="21.72" length="9.33" shape="1001.65,45.82 1001.65,55.15"/>
    </edge>
    <edge id=":31_2" function="internal">
        <lane id=":31_2_0" index="0" speed="21.72" length="3.30" shape="1001.65,45.82 998.35,45.82"/>
    </edge>
    <edge id=":31_3" function="internal">
        <lane id=":31_3_0" index="0" speed="24.75" length="6.19" shape="995.46,50.07 996.73,50.18 997.63,49.51 998.17,48.06 998.35,45.82"/>
    </edge>
    <edge id=":31_4" function="internal">
        <lane id=":31_4_0" index="0" speed="27.78" length="9.07" shape="995.46,50.07 1004.54,50.07"/>
    </edge>
    <edge id=":31_5" function="internal">
        <lane id=":31_5_0" index="0" speed="24.75" length="8.44" shape="995.46,50.07 998.17,51.20 1000.10,52.42 1001.26,53.73 1001.65,55.15"/>
    </edge>
    <edge id=":31_6" function="internal">
        <lane id=":31_6_0" index="0" speed="21.72" length="9.33" shape="998.35,55.15 998.35,45.82"/>
    </edge>
    <edge id=":31_7" function="internal">
        <lane id=":31_7_0" index="0" speed="24.75" length="8.44" shape="998.35,55.15 998.74,53.73 999.90,52.42 1001.83,51.20 1004.54,50.07"/>
    </edge>
    <edge id=":31_8" function="internal">
        <lane id=":31_8_0" index="0" speed="21.72" length="3.30" shape="998.35,55.15 1001.65,55.15"/>
    </edge>
    <edge id=":32_0" function="internal">
        <lane id=":32_0_0" index="0" speed="21.72" length="3.30" shape="1001.65,95.82 998.35,95.82"/>
    </edge>
    <edge id=":32_1" function="internal">
        <lane id=":32_1_0" index="0" speed="21.97" length="6.19" shape="995.46,100.07 996.73,100.18 997.63,99.51 998.17,98.06 998.35,95.82"/>
    </edge>
    <edge id=":4_0" function="internal">
        <lane id=":4_0_0" index="0" speed="24.75" length="6.19" shape="101.65,45.82 101.83,48.06 102.37,49.51 103.27,50.18 104.54,50.07"/>
    </edge>
    <edge id=":4_1" function="internal">
        <lane id=":4_1_0" index="0" speed="21.72" length="9.33" shape="101.65,45.82 101.65,55.15"/>
    </edge>
    <edge id=":4_2" function="internal">
        <lane id=":4_2_0" index="0" speed="21.72" length="3.30" shape="101.65,45.82 98.35,45.82"/>
    </edge>
    <edge id=":4_3" function="internal">
        <lane id=":4_3_0" index="0" speed="24.75" length="6.19" shape="95.46,50.07 96.73,50.18 97.63,49.51 98.17,48.06 98.35,45.82"/>
    </edge>
    <edge id=":4_4" function="internal">
        <lane id=":4_4_0" index="0" speed="27.78" length="9.07" shape="95.46,50.07 104.54,50.07"/>
    </edge>
    <edge id=":4_5" function="internal">
        <lane id=":4_5_0" index="0" speed="24.75" length="8.44" shape="95.46,50.07 98.17,51.20 100.10,52.42 101.26,53.73 101.65,55.15"/>
    </edge>
    <edge id=":4_6" function="internal">
        <lane id=":4_6_0" index="0" speed="21.72" length="9.33" shape="98.35,55.15 98.35,45.82"/>
    </edge>
    <edge id=":4_7" function="internal">
        <lane id=":4_7_0" index="0" speed="24.75" length="8.44" shape="98.35,55.15 98.74,53.73 99.90,52.42 101.83,51.20 104.54,50.07"/>
    </edge>
    <edge id=":4_8" function="internal">
        <lane id=":4_8_0" index="0" speed="21.72" length="3.30" shape="98.35,55.15 101.65,55.15"/>
    </edge>
    <edge id=":5_0" function="internal">
        <lane id=":5_0_0" index="0" speed="21.97" length="6.19" shape="101.65,95.82 101.83,98.06 102.37,99.51 103.27,100.18 104.54,100.07"/>
    </edge>
    <edge id=":5_1" function="internal">
        <lane id=":5_1_0" index="0" speed="21.72" length="3.30" shape="101.65,95.82 98.35,95.82"/>
    </edge>
    <edge id=":6_0" function="internal">
        <lane id=":6_0_0" index="0" speed="22.22" length="8.02" shape="195.99,0.26 204.01,0.26"/>
    </edge>
    <edge id=":6_1" function="internal">
        <lane id=":6_1_0" index="0" speed="21.97" length="7.92" shape="195.99,0.26 198.47,1.30 200.23,2.46 201.30,3.75 201.65,5.15"/>
    </edge>
    <edge id=":6_2" function="internal">
        <lane id=":6_2_0" index="0" speed="21.97" length="7.92" shape="198.35,5.15 198.70,3.75 199.77,2.46 201.53,1.30 204.01,0.26"/>
    </edge>
    <edge id=":6_3" function="internal">
        <lane id=":6_3_0" index="0" speed="21.72" length="3.30" shape="198.35,5.15 201.65,5.15"/>
    </edge>
    <edge id=":7_0" function="internal">
        <lane id=":7_0_0" index="0" speed="24.75" length="6.19" shape="201.65,45.82 201.83,48.06 202.37,49.51 203.27,50.18 204.54,50.07"/>
    </edge>
    <edge id=":7_1" function="internal">
        <lane id=":7_1_0" index="0" speed="21.72" length="9.33" shape="201.65,45.82 201.65,55.15"/>
    </edge>
    <edge id=":7_2" function="internal">
        <lane id=":7_2_0" index="0" speed="21.72" length="3.30" shape="201.65,45.82 198.35,45.82"/>
    </edge>
    <edge id=":7_3" function="internal">
        <lane id=":7_3_0" index="0" speed="24.75" length="6.19" shape="195.46,50.07 196.73,50.18 197.63,49.51 198.17,48.06 198.35,45.82"/>
    </edge>
    <edge id=":7_4" function="internal">
        <lane id=":7_4_0" index="0" speed="27.78" length="9.07" shape="195.46,50.07 204.54,50.07"/>
    </edge>
    <edge id=":7_5" function="internal">
        <lane id=":7_5_0" index="0" speed="24.75" length="8.44" shape="195.46,50.07 198.17,51.20 200.10,52.42 201.26,53.73 201.65,55.15"/>
    </edge>
    <edge id=":7_6" function="internal">
        <lane id=":7_6_0" index="0" speed="21.72" length="9.33" shape="198.35,55.15 198.35,45.82"/>
    </edge>
    <edge id=":7_7" function="internal">
        <lane id=":7_7_0" index="0" speed="24.75" length="8.44" shape="198.35,55.15 198.74,53.73 199.90,52.42 201.83,51.20 204.54,50.07"/>
    </edge>
    <edge id=":7_8" function="internal">
        <lane id=":7_8_0" index="0" speed="21.72" length="3.30" shape="198.35,55.15 201.65,55.15"/>
    </edge>
    <edge id=":8_0" function="internal">
        <lane id=":8_0_0" index="0" speed="21.97" length="6.19" shape="201.65,95.82 201.83,98.06 202.37,99.51 203.27,100.18 204.54,100.07"/>
    </edge>
    <edge id=":8_1" function="internal">
        <lane id=":8_1_0" index="0" speed="21.72" length="3.30" shape="201.65,95.82 198.35,95.82"/>
    </edge>
    <edge id=":8_2" function="internal">
        <lane id=":8_2_0" index="0" speed="21.97" length="6.19" shape="195.46,100.07 196.73,100.18 197.63,99.51 198.17,98.06 198.35,95.82"/>
    </edge>
    <edge id=":8_3" function="internal">
        <lane id=":8_3_0" index="0" speed="22.22" length="9.07" shape="195.46,100.07 204.54,100.07"/>
    </edge>
    <edge id=":9_0" function="internal">
        <lane id=":9_0_0" index="0" speed="22.22" length="8.02" shape="295.99,0.26 304.01,0.26"/>
    </edge>
    <edge id=":9_1" function="internal">
        <lane id=":9_1_0" index="0" speed="21.97" length="7.92" shape="295.99,0.26 298.47,1.30 300.23,2.46 301.30,3.75 301.65,5.15"/>
    </edge>
    <edge id=":9_2" function="internal">
        <lane id=":9_2_0" index="0" speed="21.97" length="7.92" shape="298.35,5.15 298.70,3.75 299.77,2.46 301.53,1.30 304.01,0.26"/>
    </edge>
    <edge id=":9_3" function="internal">
        <lane id=":9_3_0" index="0" speed="21.72" length="3.30" shape="298.35,5.15 301.65,5.15"/>
    </edge>

    <edge id="10" from="16" to="15" priority="-1" spreadType="center" shape="500.00,51.65 498.35,46.90 498.35,3.10 500.00,1.65">
        <lane id="10_0" index="0" speed="21.72" length="40.67" shape="498.35,45.82 498.35,5.15"/>
    </edge>
    <edge id="11" from="16" to="17" priority="-1" spreadType="center" shape="500.00,51.65 501.65,53.10 501.65,96.90 500.00,101.65">
        <lane id="11_0" index="0" speed="21.72" length="40.67" shape="501.65,55.15 501.65,95.82"/>
    </edge>
    <edge id="12" from="19" to="18" priority="-1" spreadType="center" shape="600.00,51.65 598.35,46.90 598.35,3.10 600.00,1.65">
        <lane id="12_0" index="0" speed="21.72" length="40.67" shape="598.35,45.82 598.35,5.15"/>
    </edge>