<?xml version="1.0"?>

<!-- generated on Wed Feb 18 13:37:02 2009 by SUMO netconvert Version dev-SVN-r6713
<configuration>

   <input>
      <xml-node-files>grid.nod.xml</xml-node-files>
      <xml-edge-files>grid.edg.xml</xml-edge-files>
   </input>

   <output>
      <output-file>grid.net.xml</output-file>
   </output>

</configuration>
-->

<net>

   <net-offset>0.00,0.00</net-offset>
   <conv-boundary>0.00,0.00,1100.00,100.00</conv-boundary>
   <orig-boundary>0.00,0.00,1100.00,100.00</orig-boundary>
   <orig-proj>!</orig-proj>

   <edge id=":10_0" function="internal">
      <lanes>
         <lane id=":10_0_0" depart="0" maxspeed="21.72" length="6.20" >298.35,51.45 298.35,45.25</lane>
      </lanes>
   </edge>

   <edge id=":10_1" function="internal">
      <lanes>
         <lane id=":10_1_0" depart="0" maxspeed="24.75" length="7.85" >298.35,51.45 298.75,50.09 299.95,49.12 301.95,48.54 304.75,48.35</lane>
      </lanes>
   </edge>

   <edge id=":10_2" function="internal">
      <lanes>
         <lane id=":10_2_0" depart="0" maxspeed="21.72" length="4.82" >298.35,51.45 299.18,50.21 300.00,49.80 300.83,50.21 301.65,51.45</lane>
      </lanes>
   </edge>

   <edge id=":10_3" function="internal">
      <lanes>
         <lane id=":10_3_0" depart="0" maxspeed="24.75" length="5.00" >301.65,45.25 301.84,46.61 302.42,47.57 303.39,48.16 304.75,48.35</lane>
      </lanes>
   </edge>

   <edge id=":10_4" function="internal">
      <lanes>
         <lane id=":10_4_0" depart="0" maxspeed="21.72" length="6.20" >301.65,45.25 301.65,51.45</lane>
      </lanes>
   </edge>

   <edge id=":10_5" function="internal">
      <lanes>
         <lane id=":10_5_0" depart="0" maxspeed="21.72" length="4.82" >301.65,45.25 300.82,46.49 300.00,46.90 299.17,46.49 298.35,45.25</lane>
      </lanes>
   </edge>

   <edge id=":10_6" function="internal">
      <lanes>
         <lane id=":10_6_0" depart="0" maxspeed="24.75" length="5.00" >295.25,48.35 296.61,48.16 297.58,47.57 298.16,46.61 298.35,45.25</lane>
      </lanes>
   </edge>

   <edge id=":10_7" function="internal">
      <lanes>
         <lane id=":10_7_0" depart="0" maxspeed="27.78" length="9.50" >295.25,48.35 304.75,48.35</lane>
      </lanes>
   </edge>

   <edge id=":10_8" function="internal">
      <lanes>
         <lane id=":10_8_0" depart="0" maxspeed="24.75" length="7.85" >295.25,48.35 298.05,48.54 300.05,49.12 301.25,50.09 301.65,51.45</lane>
      </lanes>
   </edge>

   <edge id=":11_0" function="internal">
      <lanes>
         <lane id=":11_0_0" depart="0" maxspeed="21.97" length="5.00" >301.65,95.25 301.84,96.61 302.42,97.58 303.39,98.16 304.75,98.35</lane>
      </lanes>
   </edge>

   <edge id=":11_1" function="internal">
      <lanes>
         <lane id=":11_1_0" depart="0" maxspeed="21.72" length="4.82" >301.65,95.25 300.82,96.49 300.00,96.90 299.17,96.49 298.35,95.25</lane>
      </lanes>
   </edge>

   <edge id=":11_2" function="internal">
      <lanes>
         <lane id=":11_2_0" depart="0" maxspeed="21.97" length="5.00" >295.25,98.35 296.61,98.16 297.58,97.57 298.16,96.61 298.35,95.25</lane>
      </lanes>
   </edge>

   <edge id=":11_3" function="internal">
      <lanes>
         <lane id=":11_3_0" depart="0" maxspeed="22.22" length="9.50" >295.25,98.35 304.75,98.35</lane>
      </lanes>
   </edge>

   <edge id=":12_0" function="internal">
      <lanes>
         <lane id=":12_0_0" depart="0" maxspeed="21.97" length="7.85" >398.35,1.45 398.75,0.09 399.95,-0.88 401.95,-1.46 404.75,-1.65</lane>
      </lanes>
   </edge>

   <edge id=":12_1" function="internal">
      <lanes>
         <lane id=":12_1_0" depart="0" maxspeed="21.72" length="4.82" >398.35,1.45 399.18,0.21 400.00,-0.20 400.83,0.21 401.65,1.45</lane>
      </lanes>
   </edge>

   <edge id=":12_2" function="internal">
      <lanes>
         <lane id=":12_2_0" depart="0" maxspeed="22.22" length="9.50" >395.25,-1.65 404.75,-1.65</lane>
      </lanes>
   </edge>

   <edge id=":12_3" function="internal">
      <lanes>
         <lane id=":12_3_0" depart="0" maxspeed="21.97" length="7.85" >395.25,-1.65 398.05,-1.46 400.05,-0.88 401.25,0.09 401.65,1.45</lane>
      </lanes>
   </edge>

   <edge id=":13_0" function="internal">
      <lanes>
         <lane id=":13_0_0" depart="0" maxspeed="21.72" length="6.20" >398.35,51.45 398.35,45.25</lane>
      </lanes>
   </edge>

   <edge id=":13_1" function="internal">
      <lanes>
         <lane id=":13_1_0" depart="0" maxspeed="24.75" length="7.85" >398.35,51.45 398.75,50.09 399.95,49.12 401.95,48.54 404.75,48.35</lane>
      </lanes>
   </edge>

   <edge id=":13_2" function="internal">
      <lanes>
         <lane id=":13_2_0" depart="0" maxspeed="21.72" length="4.82" >398.35,51.45 399.18,50.21 400.00,49.80 400.83,50.21 401.65,51.45</lane>
      </lanes>
   </edge>

   <edge id=":13_3" function="internal">
      <lanes>
         <lane id=":13_3_0" depart="0" maxspeed="24.75" length="5.00" >401.65,45.25 401.84,46.61 402.42,47.57 403.39,48.16 404.75,48.35</lane>
      </lanes>
   </edge>

   <edge id=":13_4" function="internal">
      <lanes>
         <lane id=":13_4_0" depart="0" maxspeed="21.72" length="6.20" >401.65,45.25 401.65,51.45</lane>
      </lanes>
   </edge>

   <edge id=":13_5" function="internal">
      <lanes>
         <lane id=":13_5_0" depart="0" maxspeed="21.72" length="4.82" >401.65,45.25 400.82,46.49 400.00,46.90 399.17,46.49 398.35,45.25</lane>
      </lanes>
   </edge>

   <edge id=":13_6" function="internal">
      <lanes>
         <lane id=":13_6_0" depart="0" maxspeed="24.75" length="5.00" >395.25,48.35 396.61,48.16 397.57,47.57 398.16,46.61 398.35,45.25</lane>
      </lanes>
   </edge>

   <edge id=":13_7" function="internal">
      <lanes>
         <lane id=":13_7_0" depart="0" maxspeed="27.78" length="9.50" >395.25,48.35 404.75,48.35</lane>
      </lanes>
   </edge>

   <edge id=":13_8" function="internal">
      <lanes>
         <lane id=":13_8_0" depart="0" maxspeed="24.75" length="7.85" >395.25,48.35 398.05,48.54 400.05,49.12 401.25,50.09 401.65,51.45</lane>
      </lanes>
   </edge>

   <edge id=":14_0" function="internal">
      <lanes>
         <lane id=":14_0_0" depart="0" maxspeed="21.97" length="5.00" >401.65,95.25 401.84,96.61 402.42,97.58 403.39,98.16 404.75,98.35</lane>
      </lanes>
   </edge>

   <edge id=":14_1" function="internal">
      <lanes>
         <lane id=":14_1_0" depart="0" maxspeed="21.72" length="4.82" >401.65,95.25 400.82,96.49 400.00,96.90 399.17,96.49 398.35,95.25</lane>
      </lanes>
   </edge>

   <edge id=":14_2" function="internal">
      <lanes>
         <lane id=":14_2_0" depart="0" maxspeed="21.97" length="5.00" >395.25,98.35 396.61,98.16 397.57,97.57 398.16,96.61 398.35,95.25</lane>
      </lanes>
   </edge>

   <edge id=":14_3" function="internal">
      <lanes>
         <lane id=":14_3_0" depart="0" maxspeed="22.22" length="9.50" >395.25,98.35 404.75,98.35</lane>
      </lanes>
   </edge>

   <edge id=":15_0" function="internal">
      <lanes>
         <lane id=":15_0_0" depart="0" maxspeed="21.97" length="7.85" >498.35,1.45 498.75,0.09 499.95,-0.88 501.95,-1.46 504.75,-1.65</lane>
      </lanes>
   </edge>

   <edge id=":15_1" function="internal">
      <lanes>
         <lane id=":15_1_0" depart="0" maxspeed="21.72" length="4.82" >498.35,1.45 499.17,0.21 500.00,-0.20 500.83,0.21 501.65,1.45</lane>
      </lanes>
   </edge>

   <edge id=":15_2" function="internal">
      <lanes>
         <lane id=":15_2_0" depart="0" maxspeed="22.22" length="9.50" >495.25,-1.65 504.75,-1.65</lane>
      </lanes>
   </edge>

   <edge id=":15_3" function="internal">
      <lanes>
         <lane id=":15_3_0" depart="0" maxspeed="21.97" length="7.85" >495.25,-1.65 498.05,-1.46 500.05,-0.88 501.25,0.09 501.65,1.45</lane>
      </lanes>
   </edge>

   <edge id=":16_0" function="internal">
      <lanes>
         <lane id=":16_0_0" depart="0" maxspeed="21.72" length="6.20" >498.35,51.45 498.35,45.25</lane>
      </lanes>
   </edge>

   <edge id=":16_1" function="internal">
      <lanes>
         <lane id=":16_1_0" depart="0" maxspeed="24.75" length="7.85" >498.35,51.45 498.75,50.09 499.95,49.12 501.95,48.54 504.75,48.35</lane>
      </lanes>
   </edge>

   <edge id=":16_2" function="internal">
      <lanes>
         <lane id=":16_2_0" depart="0" maxspeed="21.72" length="4.82" >498.35,51.45 499.17,50.21 500.00,49.80 500.83,50.21 501.65,51.45</lane>
      </lanes>
   </edge>

   <edge id=":16_3" function="internal">
      <lanes>
         <lane id=":16_3_0" depart="0" maxspeed="24.75" length="5.00" >501.65,45.25 501.84,46.61 502.42,47.57 503.39,48.16 504.75,48.35</lane>
      </lanes>
   </edge>

   <edge id=":16_4" function="internal">
      <lanes>
         <lane id=":16_4_0" depart="0" maxspeed="21.72" length="6.20" >501.65,45.25 501.65,51.45</lane>
      </lanes>
   </edge>

   <edge id=":16_5" function="internal">
      <lanes>
         <lane id=":16_5_0" depart="0" maxspeed="21.72" length="4.82" >501.65,45.25 500.83,46.49 500.00,46.90 499.17,46.49 498.35,45.25</lane>
      </lanes>
   </edge>

   <edge id=":16_6" function="internal">
      <lanes>
         <lane id=":16_6_0" depart="0" maxspeed="24.75" length="5.00" >495.25,48.35 496.61,48.16 497.57,47.57 498.16,46.61 498.35,45.25</lane>
      </lanes>
   </edge>

   <edge id=":16_7" function="internal">
      <lanes>
         <lane id=":16_7_0" depart="0" maxspeed="27.78" length="9.50" >495.25,48.35 504.75,48.35</lane>
      </lanes>
   </edge>

   <edge id=":16_8" function="internal">
      <lanes>
         <lane id=":16_8_0" depart="0" maxspeed="24.75" length="7.85" >495.25,48.35 498.05,48.54 500.05,49.12 501.25,50.09 501.65,51.45</lane>
      </lanes>
   </edge>

   <edge id=":17_0" function="internal">
      <lanes>
         <lane id=":17_0_0" depart="0" maxspeed="21.97" length="5.00" >501.65,95.25 501.84,96.61 502.42,97.58 503.39,98.16 504.75,98.35</lane>
      </lanes>
   </edge>

   <edge id=":17_1" function="internal">
      <lanes>
         <lane id=":17_1_0" depart="0" maxspeed="21.72" length="4.82" >501.65,95.25 500.83,96.49 500.00,96.90 499.17,96.49 498.35,95.25</lane>
      </lanes>
   </edge>

   <edge id=":17_2" function="internal">
      <lanes>
         <lane id=":17_2_0" depart="0" maxspeed="21.97" length="5.00" >495.25,98.35 496.61,98.16 497.57,97.57 498.16,96.61 498.35,95.25</lane>
      </lanes>
   </edge>

   <edge id=":17_3" function="internal">
      <lanes>
         <lane id=":17_3_0" depart="0" maxspeed="22.22" length="9.50" >495.25,98.35 504.75,98.35</lane>
      </lanes>
   </edge>

   <edge id=":18_0" function="internal">
      <lanes>
         <lane id=":18_0_0" depart="0" maxspeed="21.97" length="7.85" >598.35,1.45 598.75,0.09 599.95,-0.88 601.95,-1.46 604.75,-1.65</lane>
      </lanes>
   </edge>

   <edge id=":18_1" function="internal">
      <lanes>
         <lane id=":18_1_0" depart="0" maxspeed="21.72" length="4.82" >598.35,1.45 599.18,0.21 600.00,-0.20 600.83,0.21 601.65,1.45</lane>
      </lanes>
   </edge>

   <edge id=":18_2" function="internal">
      <lanes>
         <lane id=":18_2_0" depart="0" maxspeed="22.22" length="9.50" >595.25,-1.65 604.75,-1.65</lane>
      </lanes>
   </edge>

   <edge id=":18_3" function="internal">
      <lanes>
         <lane id=":18_3_0" depart="0" maxspeed="21.97" length="7.85" >595.25,-1.65 598.05,-1.46 600.05,-0.88 601.25,0.09 601.65,1.45</lane>
      </lanes>
   </edge>

   <edge id=":19_0" function="internal">
      <lanes>
         <lane id=":19_0_0" depart="0" maxspeed="21.72" length="6.20" >598.35,51.45 598.35,45.25</lane>
      </lanes>
   </edge>

   <edge id=":19_1" function="internal">
      <lanes>
         <lane id=":19_1_0" depart="0" maxspeed="24.75" length="7.85" >598.35,51.45 598.75,50.09 599.95,49.12 601.95,48.54 604.75,48.35</lane>
      </lanes>
   </edge>

   <edge id=":19_2" function="internal">
      <lanes>
         <lane id=":19_2_0" depart="0" maxspeed="21.72" length="4.82" >598.35,51.45 599.18,50.21 600.00,49.80 600.83,50.21 601.65,51.45</lane>
      </lanes>
   </edge>

   <edge id=":19_3" function="internal">
      <lanes>
         <lane id=":19_3_0" depart="0" maxspeed="24.75" length="5.00" >601.65,45.25 601.84,46.61 602.43,47.57 603.39,48.16 604.75,48.35</lane>
      </lanes>
   </edge>

   <edge id=":19_4" function="internal">
      <lanes>
         <lane id=":19_4_0" depart="0" maxspeed="21.72" length="6.20" >601.65,45.25 601.65,51.45</lane>
      </lanes>
   </edge>

   <edge id=":19_5" function="internal">
      <lanes>
         <lane id=":19_5_0" depart="0" maxspeed="21.72" length="4.82" >601.65,45.25 600.82,46.49 600.00,46.90 599.17,46.49 598.35,45.25</lane>
      </lanes>
   </edge>

   <edge id=":19_6" function="internal">
      <lanes>
         <lane id=":19_6_0" depart="0" maxspeed="24.75" length="5.00" >595.25,48.35 596.61,48.16 597.57,47.57 598.16,46.61 598.35,45.25</lane>
      </lanes>
   </edge>

   <edge id=":19_7" function="internal">
      <lanes>
         <lane id=":19_7_0" depart="0" maxspeed="27.78" length="9.50" >595.25,48.35 604.75,48.35</lane>
      </lanes>
   </edge>

   <edge id=":19_8" function="internal">
      <lanes>
         <lane id=":19_8_0" depart="0" maxspeed="24.75" length="7.85" >595.25,48.35 598.05,48.54 600.05,49.12 601.25,50.09 601.65,51.45</lane>
      </lanes>
   </edge>

   <edge id=":20_0" function="internal">
      <lanes>
         <lane id=":20_0_0" depart="0" maxspeed="21.97" length="5.00" >601.65,95.25 601.84,96.61 602.43,97.58 603.39,98.16 604.75,98.35</lane>
      </lanes>
   </edge>

   <edge id=":20_1" function="internal">
      <lanes>
         <lane id=":20_1_0" depart="0" maxspeed="21.72" length="4.82" >601.65,95.25 600.82,96.49 600.00,96.90 599.17,96.49 598.35,95.25</lane>
      </lanes>
   </edge>

   <edge id=":20_2" function="internal">
      <lanes>
         <lane id=":20_2_0" depart="0" maxspeed="21.97" length="5.00" >595.25,98.35 596.61,98.16 597.57,97.57 598.16,96.61 598.35,95.25</lane>
      </lanes>
   </edge>

   <edge id=":20_3" function="internal">
      <lanes>
         <lane id=":20_3_0" depart="0" maxspeed="22.22" length="9.50" >595.25,98.35 604.75,98.35</lane>
      </lanes>
   </edge>

   <edge id=":21_0" function="internal">
      <lanes>
         <lane id=":21_0_0" depart="0" maxspeed="21.97" length="7.85" >698.35,1.45 698.75,0.09 699.95,-0.88 701.95,-1.46 704.75,-1.65</lane>
      </lanes>
   </edge>

   <edge id=":21_1" function="internal">
      <lanes>
         <lane id=":21_1_0" depart="0" maxspeed="21.72" length="4.82" >698.35,1.45 699.18,0.21 700.00,-0.20 700.83,0.21 701.65,1.45</lane>
      </lanes>
   </edge>

   <edge id=":21_2" function="internal">
      <lanes>
         <lane id=":21_2_0" depart="0" maxspeed="22.22" length="9.50" >695.25,-1.65 704.75,-1.65</lane>
      </lanes>
   </edge>

   <edge id=":21_3" function="internal">
      <lanes>
         <lane id=":21_3_0" depart="0" maxspeed="21.97" length="7.85" >695.25,-1.65 698.05,-1.46 700.05,-0.88 701.25,0.09 701.65,1.45</lane>
      </lanes>
   </edge>

   <edge id=":22_0" function="internal">
      <lanes>
         <lane id=":22_0_0" depart="0" maxspeed="21.72" length="6.20" >698.35,51.45 698.35,45.25</lane>
      </lanes>
   </edge>

   <edge id=":22_1" function="internal">
      <lanes>
         <lane id=":22_1_0" depart="0" maxspeed="24.75" length="7.85" >698.35,51.45 698.75,50.09 699.95,49.12 701.95,48.54 704.75,48.35</lane>
      </lanes>
   </edge>

   <edge id=":22_2" function="internal">
      <lanes>
         <lane id=":22_2_0" depart="0" maxspeed="21.72" length="4.82" >698.35,51.45 699.18,50.21 700.00,49.80 700.83,50.21 701.65,51.45</lane>
      </lanes>
   </edge>

   <edge id=":22_3" function="internal">
      <lanes>
         <lane id=":22_3_0" depart="0" maxspeed="24.75" length="5.00" >701.65,45.25 701.84,46.61 702.43,47.57 703.39,48.16 704.75,48.35</lane>
      </lanes>
   </edge>

   <edge id=":22_4" function="internal">
      <lanes>
         <lane id=":22_4_0" depart="0" maxspeed="21.72" length="6.20" >701.65,45.25 701.65,51.45</lane>
      </lanes>
   </edge>

   <edge id=":22_5" function="internal">
      <lanes>
         <lane id=":22_5_0" depart="0" maxspeed="21.72" length="4.82" >701.65,45.25 700.82,46.49 700.00,46.90 699.17,46.49 698.35,45.25</lane>
      </lanes>
   </edge>

   <edge id=":22_6" function="internal">
      <lanes>
         <lane id=":22_6_0" depart="0" maxspeed="24.75" length="5.00" >695.25,48.35 696.61,48.16 697.57,47.57 698.16,46.61 698.35,45.25</lane>
      </lanes>
   </edge>

   <edge id=":22_7" function="internal">
      <lanes>
         <lane id=":22_7_0" depart="0" maxspeed="27.78" length="9.50" >695.25,48.35 704.75,48.35</lane>
      </lanes>
   </edge>

   <edge id=":22_8" function="internal">
      <lanes>
         <lane id=":22_8_0" depart="0" maxspeed="24.75" length="7.85" >695.25,48.35 698.05,48.54 700.05,49.12 701.25,50.09 701.65,51.45</lane>
      </lanes>
   </edge>

   <edge id=":23_0" function="internal">
      <lanes>
         <lane id=":23_0_0" depart="0" maxspeed="21.97" length="5.00" >701.65,95.25 701.84,96.61 702.43,97.58 703.39,98.16 704.75,98.35</lane>
      </lanes>
   </edge>

   <edge id=":23_1" function="internal">
      <lanes>
         <lane id=":23_1_0" depart="0" maxspeed="21.72" length="4.82" >701.65,95.25 700.82,96.49 700.00,96.90 699.17,96.49 698.35,95.25</lane>
      </lanes>
   </edge>

   <edge id=":23_2" function="internal">
      <lanes>
         <lane id=":23_2_0" depart="0" maxspeed="21.97" length="5.00" >695.25,98.35 696.61,98.16 697.57,97.57 698.16,96.61 698.35,95.25</lane>
      </lanes>
   </edge>

   <edge id=":23_3" function="internal">
      <lanes>
         <lane id=":23_3_0" depart="0" maxspeed="22.22" length="9.50" >695.25,98.35 704.75,98.35</lane>
      </lanes>
   </edge>

   <edge id=":24_0" function="internal">
      <lanes>
         <lane id=":24_0_0" depart="0" maxspeed="21.97" length="7.85" >798.35,1.45 798.75,0.09 799.95,-0.88 801.95,-1.46 804.75,-1.65</lane>
      </lanes>
   </edge>

   <edge id=":24_1" function="internal">
      <lanes>
         <lane id=":24_1_0" depart="0" maxspeed="21.72" length="4.82" >798.35,1.45 799.18,0.21 800.00,-0.20 800.83,0.21 801.65,1.45</lane>
      </lanes>
   </edge>

   <edge id=":24_2" function="internal">
      <lanes>
         <lane id=":24_2_0" depart="0" maxspeed="22.22" length="9.50" >795.25,-1.65 804.75,-1.65</lane>
      </lanes>
   </edge>

   <edge id=":24_3" function="internal">
      <lanes>
         <lane id=":24_3_0" depart="0" maxspeed="21.97" length="7.85" >795.25,-1.65 798.05,-1.46 800.05,-0.88 801.25,0.09 801.65,1.45</lane>
      </lanes>
   </edge>

   <edge id=":25_0" function="internal">
      <lanes>
         <lane id=":25_0_0" depart="0" maxspeed="21.72" length="6.20" >798.35,51.45 798.35,45.25</lane>
      </lanes>
   </edge>

   <edge id=":25_1" function="internal">
      <lanes>
         <lane id=":25_1_0" depart="0" maxspeed="24.75" length="7.85" >798.35,51.45 798.75,50.09 799.95,49.12 801.95,48.54 804.75,48.35</lane>
      </lanes>
   </edge>

   <edge id=":25_2" function="internal">
      <lanes>
         <lane id=":25_2_0" depart="0" maxspeed="21.72" length="4.82" >798.35,51.45 799.18,50.21 800.00,49.80 800.83,50.21 801.65,51.45</lane>
      </lanes>
   </edge>

   <edge id=":25_3" function="internal">
      <lanes>
         <lane id=":25_3_0" depart="0" maxspeed="24.75" length="5.00" >801.65,45.25 801.84,46.61 802.43,47.57 803.39,48.16 804.75,48.35</lane>
      </lanes>
   </edge>

   <edge id=":25_4" function="internal">
      <lanes>
         <lane id=":25_4_0" depart="0" maxspeed="21.72" length="6.20" >801.65,45.25 801.65,51.45</lane>
      </lanes>
   </edge>

   <edge id=":25_5" function="internal">
      <lanes>
         <lane id=":25_5_0" depart="0" maxspeed="21.72" length="4.82" >801.65,45.25 800.82,46.49 800.00,46.90 799.17,46.49 798.35,45.25</lane>
      </lanes>
   </edge>

   <edge id=":25_6" function="internal">
      <lanes>
         <lane id=":25_6_0" depart="0" maxspeed="24.75" length="5.00" >795.25,48.35 796.61,48.16 797.57,47.57 798.16,46.61 798.35,45.25</lane>
      </lanes>
   </edge>

   <edge id=":25_7" function="internal">
      <lanes>
         <lane id=":25_7_0" depart="0" maxspeed="27.78" length="9.50" >795.25,48.35 804.75,48.35</lane>
      </lanes>
   </edge>

   <edge id=":25_8" function="internal">
      <lanes>
         <lane id=":25_8_0" depart="0" maxspeed="24.75" length="7.85" >795.25,48.35 798.05,48.54 800.05,49.12 801.25,50.09 801.65,51.45</lane>
      </lanes>
   </edge>

   <edge id=":26_0" function="internal">
      <lanes>
         <lane id=":26_0_0" depart="0" maxspeed="21.97" length="5.00" >801.65,95.25 801.84,96.61 802.43,97.58 803.39,98.16 804.75,98.35</lane>
      </lanes>
   </edge>

   <edge id=":26_1" function="internal">
      <lanes>
         <lane id=":26_1_0" depart="0" maxspeed="21.72" length="4.82" >801.65,95.25 800.82,96.49 800.00,96.90 799.17,96.49 798.35,95.25</lane>
      </lanes>
   </edge>

   <edge id=":26_2" function="internal">
      <lanes>
         <lane id=":26_2_0" depart="0" maxspeed="21.97" length="5.00" >795.25,98.35 796.61,98.16 797.57,97.57 798.16,96.61 798.35,95.25</lane>
      </lanes>
   </edge>

   <edge id=":26_3" function="internal">
      <lanes>
         <lane id=":26_3_0" depart="0" maxspeed="22.22" length="9.50" >795.25,98.35 804.75,98.35</lane>
      </lanes>
   </edge>

   <edge id=":27_0" function="internal">
      <lanes>
         <lane id=":27_0_0" depart="0" maxspeed="21.97" length="7.85" >898.35,1.45 898.75,0.09 899.95,-0.88 901.95,-1.46 904.75,-1.65</lane>
      </lanes>
   </edge>

   <edge id=":27_1" function="internal">
      <lanes>
         <lane id=":27_1_0" depart="0" maxspeed="21.72" length="4.82" >898.35,1.45 899.18,0.21 900.00,-0.20 900.83,0.21 901.65,1.45</lane>
      </lanes>
   </edge>

   <edge id=":27_2" function="internal">
      <lanes>
         <lane id=":27_2_0" depart="0" maxspeed="22.22" length="9.50" >895.25,-1.65 904.75,-1.65</lane>
      </lanes>
   </edge>

   <edge id=":27_3" function="internal">
      <lanes>
         <lane id=":27_3_0" depart="0" maxspeed="21.97" length="7.85" >895.25,-1.65 898.05,-1.46 900.05,-0.88 901.25,0.09 901.65,1.45</lane>
      </lanes>
   </edge>

   <edge id=":28_0" function="internal">
      <lanes>
         <lane id=":28_0_0" depart="0" maxspeed="21.72" length="6.20" >898.35,51.45 898.35,45.25</lane>
      </lanes>
   </edge>

   <edge id=":28_1" function="internal">
      <lanes>
         <lane id=":28_1_0" depart="0" maxspeed="24.75" length="7.85" >898.35,51.45 898.75,50.09 899.95,49.12 901.95,48.54 904.75,48.35</lane>
      </lanes>
   </edge>

   <edge id=":28_2" function="internal">
      <lanes>
         <lane id=":28_2_0" depart="0" maxspeed="21.72" length="4.82" >898.35,51.45 899.18,50.21 900.00,49.80 900.83,50.21 901.65,51.45</lane>
      </lanes>
   </edge>

   <edge id=":28_3" function="internal">
      <lanes>
         <lane id=":28_3_0" depart="0" maxspeed="24.75" length="5.00" >901.65,45.25 901.84,46.61 902.43,47.57 903.39,48.16 904.75,48.35</lane>
      </lanes>
   </edge>

   <edge id=":28_4" function="internal">
      <lanes>
         <lane id=":28_4_0" depart="0" maxspeed="21.72" length="6.20" >901.65,45.25 901.65,51.45</lane>
      </lanes>
   </edge>

   <edge id=":28_5" function="internal">
      <lanes>
         <lane id=":28_5_0" depart="0" maxspeed="21.72" length="4.82" >901.65,45.25 900.82,46.49 900.00,46.90 899.17,46.49 898.35,45.25</lane>
      </lanes>
   </edge>

   <edge id=":28_6" function="internal">
      <lanes>
         <lane id=":28_6_0" depart="0" maxspeed="24.75" length="5.00" >895.25,48.35 896.61,48.16 897.57,47.57 898.16,46.61 898.35,45.25</lane>
      </lanes>
   </edge>

   <edge id=":28_7" function="internal">
      <lanes>
         <lane id=":28_7_0" depart="0" maxspeed="27.78" length="9.50" >895.25,48.35 904.75,48.35</lane>
      </lanes>
   </edge>

   <edge id=":28_8" function="internal">
      <lanes>
         <lane id=":28_8_0" depart="0" maxspeed="24.75" length="7.85" >895.25,48.35 898.05,48.54 900.05,49.12 901.25,50.09 901.65,51.45</lane>
      </lanes>
   </edge>

   <edge id=":29_0" function="internal">
      <lanes>
         <lane id=":29_0_0" depart="0" maxspeed="21.97" length="5.00" >901.65,95.25 901.84,96.61 902.43,97.58 903.39,98.16 904.75,98.35</lane>
      </lanes>
   </edge>

   <edge id=":29_1" function="internal">
      <lanes>
         <lane id=":29_1_0" depart="0" maxspeed="21.72" length="4.82" >901.65,95.25 900.82,96.49 900.00,96.90 899.17,96.49 898.35,95.25</lane>
      </lanes>
   </edge>

   <edge id=":29_2" function="internal">
      <lanes>
         <lane id=":29_2_0" depart="0" maxspeed="21.97" length="5.00" >895.25,98.35 896.61,98.16 897.57,97.57 898.16,96.61 898.35,95.25</lane>
      </lanes>
   </edge>

   <edge id=":29_3" function="internal">
      <lanes>
         <lane id=":29_3_0" depart="0" maxspeed="22.22" length="9.50" >895.25,98.35 904.75,98.35</lane>
      </lanes>
   </edge>

   <edge id=":3_0" function="internal">
      <lanes>
         <lane id=":3_0_0" depart="0" maxspeed="21.97" length="7.85" >98.35,1.45 98.75,0.09 99.95,-0.88 101.95,-1.46 104.75,-1.65</lane>
      </lanes>
   </edge>

   <edge id=":3_1" function="internal">
      <lanes>
         <lane id=":3_1_0" depart="0" maxspeed="21.72" length="4.82" >98.35,1.45 99.17,0.21 100.00,-0.20 100.82,0.21 101.65,1.45</lane>
      </lanes>
   </edge>

   <edge id=":30_0" function="internal">
      <lanes>
         <lane id=":30_0_0" depart="0" maxspeed="21.72" length="4.82" >998.35,1.45 999.17,0.21 1000.00,-0.20 1000.83,0.21 1001.65,1.45</lane>
      </lanes>
   </edge>

   <edge id=":30_1" function="internal">
      <lanes>
         <lane id=":30_1_0" depart="0" maxspeed="21.97" length="7.85" >995.25,-1.65 998.05,-1.46 1000.05,-0.88 1001.25,0.09 1001.65,1.45</lane>
      </lanes>
   </edge>

   <edge id=":31_0" function="internal">
      <lanes>
         <lane id=":31_0_0" depart="0" maxspeed="21.72" length="6.20" >998.35,51.45 998.35,45.25</lane>
      </lanes>
   </edge>

   <edge id=":31_1" function="internal">
      <lanes>
         <lane id=":31_1_0" depart="0" maxspeed="24.75" length="7.85" >998.35,51.45 998.75,50.09 999.95,49.12 1001.95,48.54 1004.75,48.35</lane>
      </lanes>
   </edge>

   <edge id=":31_2" function="internal">
      <lanes>
         <lane id=":31_2_0" depart="0" maxspeed="21.72" length="4.82" >998.35,51.45 999.17,50.21 1000.00,49.80 1000.83,50.21 1001.65,51.45</lane>
      </lanes>
   </edge>

   <edge id=":31_3" function="internal">
      <lanes>
         <lane id=":31_3_0" depart="0" maxspeed="24.75" length="5.00" >1001.65,45.25 1001.84,46.61 1002.43,47.57 1003.39,48.16 1004.75,48.35</lane>
      </lanes>
   </edge>

   <edge id=":31_4" function="internal">
      <lanes>
         <lane id=":31_4_0" depart="0" maxspeed="21.72" length="6.20" >1001.65,45.25 1001.65,51.45</lane>
      </lanes>
   </edge>

   <edge id=":31_5" function="internal">
      <lanes>
         <lane id=":31_5_0" depart="0" maxspeed="21.72" length="4.82" >1001.65,45.25 1000.83,46.49 1000.00,46.90 999.17,46.49 998.35,45.25</lane>
      </lanes>
   </edge>

   <edge id=":31_6" function="internal">
      <lanes>
         <lane id=":31_6_0" depart="0" maxspeed="24.75" length="5.00" >995.25,48.35 996.61,48.16 997.57,47.57 998.16,46.61 998.35,45.25</lane>
      </lanes>
   </edge>

   <edge id=":31_7" function="internal">
      <lanes>
         <lane id=":31_7_0" depart="0" maxspeed="27.78" length="9.50" >995.25,48.35 1004.75,48.35</lane>
      </lanes>
   </edge>

   <edge id=":31_8" function="internal">
      <lanes>
         <lane id=":31_8_0" depart="0" maxspeed="24.75" length="7.85" >995.25,48.35 998.05,48.54 1000.05,49.12 1001.25,50.09 1001.65,51.45</lane>
      </lanes>
   </edge>

   <edge id=":32_0" function="internal">
      <lanes>
         <lane id=":32_0_0" depart="0" maxspeed="21.72" length="4.82" >1001.65,95.25 1000.83,96.49 1000.00,96.90 999.17,96.49 998.35,95.25</lane>
      </lanes>
   </edge>

   <edge id=":32_1" function="internal">
      <lanes>
         <lane id=":32_1_0" depart="0" maxspeed="21.97" length="5.00" >995.25,98.35 996.61,98.16 997.57,97.57 998.16,96.61 998.35,95.25</lane>
      </lanes>
   </edge>

   <edge id=":4_0" function="internal">
      <lanes>
         <lane id=":4_0_0" depart="0" maxspeed="21.72" length="6.20" >98.35,51.45 98.35,45.25</lane>
      </lanes>
   </edge>

   <edge id=":4_1" function="internal">
      <lanes>
         <lane id=":4_1_0" depart="0" maxspeed="24.75" length="7.85" >98.35,51.45 98.75,50.09 99.95,49.12 101.95,48.54 104.75,48.35</lane>
      </lanes>
   </edge>

   <edge id=":4_2" function="internal">
      <lanes>
         <lane id=":4_2_0" depart="0" maxspeed="21.72" length="4.82" >98.35,51.45 99.17,50.21 100.00,49.80 100.82,50.21 101.65,51.45</lane>
      </lanes>
   </edge>

   <edge id=":4_3" function="internal">
      <lanes>
         <lane id=":4_3_0" depart="0" maxspeed="24.75" length="5.00" >101.65,45.25 101.84,46.61 102.43,47.57 103.39,48.16 104.75,48.35</lane>
      </lanes>
   </edge>

   <edge id=":4_4" function="internal">
      <lanes>
         <lane id=":4_4_0" depart="0" maxspeed="21.72" length="6.20" >101.65,45.25 101.65,51.45</lane>
      </lanes>
   </edge>

   <edge id=":4_5" function="internal">
      <lanes>
         <lane id=":4_5_0" depart="0" maxspeed="21.72" length="4.82" >101.65,45.25 100.83,46.49 100.00,46.90 99.18,46.49 98.35,45.25</lane>
      </lanes>
   </edge>

   <edge id=":4_6" function="internal">
      <lanes>
         <lane id=":4_6_0" depart="0" maxspeed="24.75" length="5.00" >95.25,48.35 96.61,48.16 97.58,47.57 98.16,46.61 98.35,45.25</lane>
      </lanes>
   </edge>

   <edge id=":4_7" function="internal">
      <lanes>
         <lane id=":4_7_0" depart="0" maxspeed="27.78" length="9.50" >95.25,48.35 104.75,48.35</lane>
      </lanes>
   </edge>

   <edge id=":4_8" function="internal">