[General]
network = highway1
debug-on-errors = true

cmdenv-express-mode = true
cmdenv-autoflush = true
cmdenv-status-frequency = 10000000s
tkenv-plugin-path = ../../../etc/plugins

sim-time-limit = 6000s

**.vector-recording = false

**.constraintAreaMinX = 0m
**.constraintAreaMinY = 0m
**.constraintAreaMinZ = 0m
**.constraintAreaMaxX = 10672m
**.constraintAreaMaxY = 7105m
**.constraintAreaMaxZ = 0m

**.debug = true
**.coreDebug = false
**.host*.**.channelNumber = 0

# channel physical parameters
*.channelControl.carrierFrequency = 2.4GHz
*.channelControl.pMax = 2.0mW
*.channelControl.sat = -110dBm
*.channelControl.alpha = 2
*.channelControl.numChannels = 1

# TraCIScenarioManagerLaunchd
*.manager.updateInterval = 1s
*.manager.host = "localhost"
*.manager.port = 9999
*.manager.moduleType = "inet.tests.traci.Car"
*.manager.moduleName = "host"
*.manager.moduleDisplayString = ""
*.manager.autoShutdown = true
*.manager.margin = 25
*.manager.launchConfig = xmldoc("sumo-launchd.launch.xml")

# nic settings
**.wlan.mgmt.frameCapacity = 10
**.wlan.mgmtType = "Ieee80211MgmtAdhoc"
**.wlan.mac.address = "auto"
**.wlan.mac.maxQueueSize = 14
**.wlan.mac.rtsThresholdBytes = 3000B
**.wlan.mac.bitrate = 2Mbps
**.wlan.mac.retryLimit = 7
**.wlan.mac.cwMinData = 7
**.wlan.mac.cwMinBroadcast = 31

**.wlan.radio.bitrate = 2Mbps
**.wlan.radio.transmitterPower = 2mW
**.wlan.radio.thermalNoise = -110dBm
**.wlan.radio.sensitivity = -85dBm
**.wlan.radio.pathLossAlpha = 2
**.wlan.radio.snirThreshold = 4dB

# Application layer
*.host[0].app.testNumber = ${0..9}
*.host[*].app.testNumber = -1
