[General]
cmdenv-express-mode = true
cmdenv-autoflush = true
cmdenv-status-frequency = 10000000s


network = highway1

debug-on-errors = true
print-undisposed = false

sim-time-limit = 6000s

**.udpapp.*.vector-recording = true
**.vector-recording = true

**.debug = false
**.coreDebug = false

*.playgroundSizeX = 10672 #[m]
*.playgroundSizeY = 7105 #[m]

# Car::TraCIMobility
*.host[*].mobility.accidentCount = 0
*.host[*].mobility.accidentStart = -1s
*.host[*].mobility.accidentDuration = -1s
*.host[*].mobility.accidentInterval = -1s

# TraCIScenarioManagerLaunchd
*.manager.updateInterval = 1s
*.manager.host = "localhost"
*.manager.port = 9999
*.manager.moduleType = "inet.tests.traci.Car"
*.manager.moduleName = "host"
*.manager.moduleDisplayString = "i=misc/node2;is=vs;r=0,,#707070,1"
*.manager.autoShutdown = true
*.manager.margin = 25
*.manager.launchConfig = xmldoc("sumo-launchd.launch.xml")

# Network layer
**.networkLayer.ip.procDelay = 10us
**.networkLayer.arp.retryTimeout = 1s
**.networkLayer.arp.retryCount = 3
**.networkLayer.arp.cacheTimeout = 100s

# WiFi link layer
**.wlan.mac.address = "auto"
**.wlan.mac.maxQueueSize = 14
**.wlan.mac.rtsCts = false
**.wlan.mac.bitrate = 11Mbps
**.wlan.mac.broadcastBackoff = 31
**.wlan.decider.snirThreshold = 4dB
**.wlan.decider.bitrate = 11Mbps
**.wlan.snrEval.bitrate = 11Mbps
**.wlan.snrEval.headerLength = 192b
**.wlan.snrEval.thermalNoise = -110dBm
**.wlan.snrEval.sensitivity = -85dBm
**.wlan.snrEval.pathLossAlpha = 1.9
**.wlan.snrEval.carrierFrequency = 2.4GHz
**.wlan.snrEval.channelNumber = 0
*.channelcontrol.carrierFrequency = 2.4GHz
**.wlan.snrEval.transmitterPower = 2mW
*.channelcontrol.pMax = 2mW
*.channelcontrol.sat = -80dBm
*.channelcontrol.alpha = 1.9
*.channelcontrol.numChannels = 1

# Application layer
*.host[0].app.testNumber = ${runnumber}
*.host[*].app.testNumber = -1


repeat = 10
