[General]
network = DhcpShowcase
**.eth[*].bitrate = 100Mbps

# Visualizer: show interface tables with address/mask
*.visualizer.interfaceTableVisualizer.displayInterfaceTables = true
*.visualizer.interfaceTableVisualizer.format = "%a/%l"

# Enable computed checksums for PcapRecorder compatibility
**.checksumMode = "computed"
**.fcsMode = "computed"

# PcapRecorder on server for debugging/demonstration
*.dhcpServer.numPcapRecorders = 1
*.dhcpServer.pcapRecorder[0].pcapFile = "${resultdir}/${configname}-dhcpServer.pcap"
**.pcapRecorder[*].alwaysFlush = true

[Config BasicDHCP]
description = "Basic DHCP address assignment (DORA exchange)"
sim-time-limit = 50s

# DHCP Server
*.dhcpServer.numApps = 1
*.dhcpServer.app[0].typename = "DhcpServer"
*.dhcpServer.app[0].numReservedAddresses = 10
*.dhcpServer.app[0].maxNumClients = 50
*.dhcpServer.app[0].gateway = "192.168.1.1"
*.dhcpServer.app[0].leaseTime = 3600s

# DHCP Clients
*.client[*].numApps = 1
*.client[*].app[0].typename = "DhcpClient"
*.client[*].app[0].startTime = uniform(0s, 2s)

[Config LeaseRenewal]
description = "DHCP lease renewal (short lease triggers T1 renewal timer)"
extends = BasicDHCP
sim-time-limit = 200s

# Override lease time to 60s so T1=30s triggers renewal during simulation
*.dhcpServer.app[0].leaseTime = 60s

[Config ClientReboot]
description = "DHCP client shutdown and restart using ScenarioManager"
extends = BasicDHCP
sim-time-limit = 200s

**.hasStatus = true
*.scenarioManager.script = xmldoc("scenario.xml")
*.dhcpServer.app[0].leaseTime = 120s
