[General]
network = InstrumentShowcase
sim-time-limit = 3s

# TCP app
*.server.numApps = 1
*.server.app[0].typename = "TcpSessionApp"
*.server.app[*].connectAddress = "client"
*.server.app[*].connectPort = 1000
*.server.app[*].tOpen = 0s
*.server.app[*].tSend = 0s
*.server.app[*].active = true
*.server.app[*].sendBytes = 1MiB
*.server.app[*].localAddress = "10.0.0.2"
*.server.app[*].localPort = 1000

*.client.numApps = 1
*.client.app[0].typename = "TcpSinkApp"
*.client.app[*].localAddress = "10.0.0.1"
*.client.app[*].localPort = 1000

*.*.app[*].tClose = 0s

# WLAN
*.server.wlan[*].mgmt.typename = "Ieee80211MgmtAdhoc"
*.*.wlan[*].mac.*.rateControl.typename = "AarfRateControl"
*.*.wlan[*].mac.*.rateControl.initialRate = 54Mbps
*.*.wlan[*].mac.dcf.rateControl.decreaseThreshold = 4

# Misc settings
**.backgroundNoise.power = -100dBm
**.transmitter.power = 2mW
**.arp.typename = "GlobalArp"

# Mobility
*.client.mobility.typename = "LinearMobility"
*.client.mobility.initialMovementHeading = 0deg
*.client.mobility.constraintAreaMinX = 300m
*.client.mobility.constraintAreaMaxX = 600m
*.client.mobility.speed = 200mps

# Visualizer
*.server.wlan[*].radio.displayCommunicationRange = true
*.visualizer.*.networkNodeVisualizer.zIndex = -1
*.visualizer.*.sceneVisualizer.animationSpeed = 0.02
