[General]
sim-time-limit = 100s
#debug-on-errors = true
output-scalar-file = results.sca
output-scalar-precision = 3

cmdenv-express-mode = true
cmdenv-event-banners = false

tkenv-plugin-path = ../../../etc/plugins

**.app[0].**.scalar-recording = true
**.scalar-recording = false
**.vector-recording = false

# ip settings
**.ip.procDelay = 1us
**.rsvp.procDelay = 1us

# NIC configuration
**.eth[*].queue.typename = "EtherQosQueue"
**.eth[*].queue.dataQueue.typename = "DropTailQueue"
**.eth[*].queue.dataQueue.frameCapacity = 100

#tcp settings
**.tcp.mss = 1024
**.tcp.advertisedWindow = 14336
#**.tcp.sendQueueClass = "TCPMsgBasedSendQueue"
#**.tcp.receiveQueueClass = "TCPMsgBasedRcvQueue"
**.tcp.tcpAlgorithmClass = "TcpReno"
**.tcp.recordStats = false

# OSPF configuration
**.ospfConfig = xmldoc("OSPFConfig.xml")

# bgp settings
**.bgpConfig = xmldoc("BGPConfig.xml")

[Config config1]
# Multi OPSF routing test + BGP
description = "Multi OPSF + BGP"
network = BGPTest

#UDP Host
**.H*.eth.mac.promiscuous = false

# UDPApp parameters
**.HA*.numApps = 1
**.HB*.numApps = 1
**.HC*.numApps = 1
**.app[0].messageLength = 32 bytes
**.app[0].sendInterval = 2s
**.app[0].localPort = 1234
**.app[0].destPort = 1234

**.HA11.app[*].typename = "UdpBasicApp"
**.HA11.app[0].destAddresses = "192.170.1.2"
**.HA21.app[*].typename = "UdpBasicApp"
**.HA21.app[0].destAddresses = "192.172.1.2"
**.HB11.app[*].typename = "UdpBasicApp"
**.HB11.app[0].destAddresses = "192.169.1.2"
**.HB21.app[*].typename = "UdpBasicApp"
**.HB21.app[0].destAddresses = "192.173.1.2"
**.HC11.app[*].typename = "UdpBasicApp"
**.HC11.app[0].destAddresses = "192.171.1.2"
**.HC21.app[*].typename = "UdpBasicApp"
**.HC21.app[0].destAddresses = "192.168.1.2"

**.HA12.app[*].typename = "UdpSink"
**.HA22.app[*].typename = "UdpSink"
**.HB12.app[*].typename = "UdpSink"
**.HB22.app[*].typename = "UdpSink"
**.HC12.app[*].typename = "UdpSink"
**.HC22.app[*].typename = "UdpSink"
