#
# To try: ./LANs -f TwoHosts.ini
#

[General]
sim-time-limit = 5s

tkenv-plugin-path = ../../../etc/plugins
**.vector-recording = true
record-eventlog = true

network = CompareMACs


*.host_iq_1_F_A.cli.destAddress = "host_iq_1_F_B"
*.host_iq_1_F_B.cli.destAddress = "host_iq_1_F_A"

*.host_eq_1_F_A.cli.destAddress = "host_eq_1_F_B"
*.host_eq_1_F_B.cli.destAddress = "host_eq_1_F_A"

*.host_iq_2_F_A.cli.destAddress = "host_iq_2_F_B"
*.host_iq_2_F_B.cli.destAddress = "host_iq_2_F_A"

*.host_eq_2_F_A.cli.destAddress = "host_eq_2_F_B"
*.host_eq_2_F_B.cli.destAddress = "host_eq_2_F_A"

**.cli.reqLength = 1250B       # 10.000 bit
**.cli.respLength = 0B      # no response

*.host_*_A.cli.startTime = 0s
*.host_*_B.cli.startTime = 10000s # out of simulation time

*.host_*_F_*.mac.duplexEnabled = true

#*.host_*_F_*.cli.waitTime = 0.005ms       # 1000Mbps 10.000 / speed [ / 2 when halfduplex]
#*.host_*_F_*.cli.waitTime  = 0.05ms        # 100Mbps  10.000 / speed [ / 2 when halfduplex]
*.host_*_F_*.cli.waitTime   = 0.9ms           # 10Mbps   10.000 / speed [ / 2 when halfduplex]

**.mac.address = "auto"
*.host_iq_*.mac.txQueueLimit = 10000
*.host_eq_*.queue.frameCapacity = 10000
