[General]
network = FrameReplicationValidation
sim-time-limit = 0.1s
**.vector-recording = false

# disable automatic MAC forwarding table configuration
*.macForwardingTableConfigurator.typename = ""

# all Ethernet interfaces have 100 Mbps speed
*.*.eth[*].bitrate = 100Mbps

# packet error rate of all links is 20%
**.channel.per = 0.2

# enable frame replication and elimination
*.*.hasStreamRedundancy = true

# source application
*.source.numApps = 1
*.source.app[0].typename = "UdpSourceApp"
*.source.app[0].io.destAddress = "destination"
*.source.app[0].io.destPort = 1000
*.source.app[0].source.displayStringTextFormat = "sent %p pk (%l)"
*.source.app[0].source.packetLength = 1200B
*.source.app[0].source.productionInterval = truncnormal(100us,50us)

# destination application
*.destination.numApps = 1
*.destination.app[0].typename = "UdpSinkApp"
*.destination.app[0].io.localPort = 1000

# all interfaces must have the same address to accept packets from all streams
*.destination.eth[*].address = "0A-AA-12-34-56-78"

# enable all automatic configurators
*.streamRedundancyConfigurator.typename = "StreamRedundancyConfigurator"
*.failureProtectionConfigurator.typename = "FailureProtectionConfigurator"

# TSN configuration
*.failureProtectionConfigurator.gateScheduleConfiguratorModule = ""
# 64B = 8B (UDP) + 20B (IP) + 4B (802.1R) + 6B (802.1Q) + 14B + 4B (ETH MAC) + 8B (ETH PHY)
*.failureProtectionConfigurator.configuration = [{name: "S1", application: "app[0]", source: "source", destination: "destination",
                                                  pcp: 0, gateIndex: 0, packetFilter: "*",
                                                  packetLength: 100B + 64B, packetInterval: 5ms, maxLatency: 100us,
                                                  nodeFailureProtection: [{any: 1, of: "s2a or s2b or s3a or s3b"}],
                                                  linkFailureProtection: [{any: 1, of: "*->* and not source->s1"},
                                                                          {any: 2, of: "s1->s2a or s2a->s2b or s2b->s3b"},
                                                                          {any: 2, of: "s1->s2b or s2b->s2a or s2a->s3a"}]}]
