[General]
scheduler-class = "inet::RealTimeScheduler"
network = Traceroute
sim-time-limit = 10s

**.fcsMode = "computed"
**.crcMode = "computed"
**.networkConfiguratorModule = ""

**.cli1.numPcapRecorders = 1
**.cli1.pcapRecorder[0].pcapFile = "results/client.pcap"

**.extRouter.numPcapRecorders = 1
**.extRouter.pcapRecorder[0].pcapFile = "results/extRouter.pcap"

# IPProcessing: processing delays for all nodes
#**.routing.procDelay = 0.2 us
#**.inputQueue.procDelay = 0.1 us

*.extRouter.numEthInterfaces = 1
*.extRouter.eth[0].typename = "ExtLowerEthernetInterface"
*.extRouter.eth[0].device = "veth0"
