[General]
#debug-on-errors = true

sim-time-limit = 3000s
seed-0-mt = 5
network = inet.examples.manetrouting.fg80211.Fg80211Net
cmdenv-express-mode = true
tkenv-plugin-path = ../../../etc/plugins
#tkenv-default-run=1

description = "FG Test - Mobility Example"

**.wlan*.mgmt.vector-recording=true
**.wlan*.**.vector-recording=false
**.wlan*.vector-recording=false
**.manetroutingprotocol.vector-recording=true

#FG parameters
#**.ip.fgIsActive= true
#**.ip.fgIsActive= false
#**.manetroutingprotocol.alpha1 = 0
#**.manetroutingprotocol.alpha2 = 1
#**.manetroutingprotocol.beta1 = 0
#**.manetroutingprotocol.helloPeriod = 1
#**.manetroutingprotocol.newPDDelay = 0.1
#**.manetroutingprotocol.newTestDelay = 0.05

# manet routing
**.routingProtocol="DSRUU"

**.constraintAreaMinX = 0m
**.constraintAreaMinY = 0m
**.constraintAreaMinZ = 0m
**.constraintAreaMaxX = 1600m
**.constraintAreaMaxY = 600m
**.constraintAreaMaxZ = 0m
*.numFixHosts = 5
*.numHosts = 15
**.debug = true
**.coreDebug = false
**.channelNumber = 0


# channel physical parameters
*.channelControl.carrierFrequency = 2.4GHz
*.channelControl.pMax = 2.0mW
*.channelControl.sat = -110dBm
*.channelControl.alpha = 2
*.channelControl.numChannels = 1

# mobility
**.mobility.initFromDisplayString = false
**.fixhost[0].mobility.initialX = 50m
**.fixhost[0].mobility.initialY = 300m

**.fixhost[1].mobility.initialX = 1050m
**.fixhost[1].mobility.initialY = 300m

**.fixhost[2].mobility.initialX = 300m
**.fixhost[2].mobility.initialY = 200m

**.fixhost[3].mobility.initialX = 550m
**.fixhost[3].mobility.initialY = 300m

**.fixhost[4].mobility.initialX = 800m
**.fixhost[4].mobility.initialY = 200m

#**.fixhost[5].mobility.initialX = 1050m
#**.fixhost[5].mobility.initialY = 300m

#**.fixhost[6].mobility.initialX = 1250m
#**.fixhost[6].mobility.initialY = 200m

#**.fixhost[7].mobility.initialX = 1500m
#**.fixhost[7].mobility.initialY = 300m


**.host[0].mobility.initialX = 300m
**.host[0].mobility.initialY = 100m

**.host[1].mobility.initialX = 300m
**.host[1].mobility.initialY = 200m

**.host[2].mobility.initialX = 300m
**.host[2].mobility.initialY = 300m

**.host[3].mobility.initialX = 300m
**.host[3].mobility.initialY = 400m

**.host[4].mobility.initialX = 300m
**.host[4].mobility.initialY = 500m

**.host[5].mobility.initialX = 550m
**.host[5].mobility.initialY = 100m

**.host[6].mobility.initialX = 550m
**.host[6].mobility.initialY = 200m

**.host[7].mobility.initialX = 550m
**.host[7].mobility.initialY = 300m

**.host[8].mobility.initialX = 550m
**.host[8].mobility.initialY = 400m

**.host[9].mobility.initialX = 550m
**.host[9].mobility.initialY = 500m


**.host[10].mobility.initialX = 800m
**.host[10].mobility.initialY = 100m

**.host[11].mobility.initialX = 800m
**.host[11].mobility.initialY = 200m

**.host[12].mobility.initialX = 800m
**.host[12].mobility.initialY = 300m

**.host[13].mobility.initialX = 800m
**.host[13].mobility.initialY = 400m

**.host[14].mobility.initialX = 800m
**.host[14].mobility.initialY = 500m


**.host[0..14].mobilityType = "LinearMobility"
**.host[0..14].mobility.angle = -90deg
**.host[0..14].mobility.speed = 10mps
**.host[0..14].mobility.updateInterval = 0.1s
**.host[*].mobilityType = "StationaryMobility"

**.host[0].mobility.nodeId = 0
**.host[1].mobility.nodeId = 1**.host[2].mobility.nodeId = 2
**.host[3].mobility.nodeId = 3
**.host[4].mobility.nodeId = 4



# udp apps (on)
**.fixhost[*].udpApp[*].typename = "UDPBasicBurst"
**.fixhost[*].numUdpApps = 1
**.host[*].numUdpApps = 0

**.fixhost[0].udpApp[0].destAddresses = "fixhost[1]"
**.fixhost[*].udpApp[0].destAddresses = ""

**.udpApp[0].localPort = 1234
**.udpApp[0].destPort = 1234
**.udpApp[0].messageLength = 512B
**.udpApp[0].sendInterval = 0.5s + uniform(-0.001s,0.001s)
**.udpApp[0].burstDuration = 0
**.udpApp[0].sleepDuration = 0
#**.udpApp[0].activeBurst = false
**.udpApp[0].chooseDestAddrMode = "perSend"
# **.udpApp[0].burstDuration = uniform(1s,4s,1)
# **.udpApp[0].stopTime = uniform(20s,40s,1)
**.udpApp[0].startTime = 0s
**.udpApp[0].stopTime = 0s
#**.udpApp[0].startTime = uniform(0s,4s,1)
**.fixhost[*].udpApp[0].startTime = 60s
#**.udpApp[0].startTime = 0.1s
**.udpApp[0].delayLimit = 100s

#**.fixhost[0].udpAppType = "UDPBasicBurst"
#**.fixhost[0].numUdpApps = 1
#**.fixhost[0].udpApp[0].localPort = 1234
#**fixhost[0].udpApp[0].destAddresses = ""

# tcp apps (off)
**.numTcpApps = 0
**.tcpAppType = "TelnetApp"

# tcp settings
**.tcp.mss = 1024
**.tcp.advertisedWindow = 14336  # 14*mss
**.tcp.sendQueueClass = "TCPMsgBasedSendQueue"
**.tcp.receiveQueueClass = "TCPMsgBasedRcvQueue"
**.tcp.tcpAlgorithmClass = "TCPReno"
**.tcp.recordStats = true

# ip settings
**.routingFile = ""
**.ip.procDelay = 10us
# **.IPForward=false

# ARP configuration
**.arp.retryTimeout = 1s
**.arp.retryCount = 3
**.arp.cacheTimeout = 100s
#**.networklayer.proxyARP = true  # Host's is hardwired "false"


# nic settings
#**.wlan*.mgmt.Willingness = 3
#**.wlan*.mgmt.Hello_ival = 2
#**.wlan*.mgmt.Tc_ival = 5
#**.wlan*.mgmt.Mid_ival = 5
#**.wlan*.mgmt.use_mac = false



# nic settings
**.wlan*.bitrate = 54Mbps
**.wlan*.opMode = "g"

**.wlan*.mac.address = "auto"
**.wlan*.mac.maxQueueSize = 14
**.wlan*.mac.rtsThresholdBytes = 3000B
**.wlan*.mac.basicBitrate = 6Mbps  # 24Mbps
**.wlan*.mac.retryLimit = 3 #************************************************num of retrasmission before link break!!!!!
**.wlan*.mac.cwMinData = 31
**.wlan*.mac.cwMinBroadcast = 31
**.wlan*.mac.slotTime = 9us #
**.wlan*.mac.AIFSN = 2 #DIFS

# channel physical parameters
*.channelControl.carrierFrequency = 2.4GHz
*.channelControl.pMax = 2.0mW
*.channelControl.sat = -110dBm
*.channelControl.alpha = 2
*.channelControl.numChannels = 1

**.wlan*.radio.transmitterPower=2.0mW
**.wlan*.radio.pathLossAlpha=2 ##################################################################
**.wlan*.radio.snirThreshold = 4dB  # in dB
**.wlan*.radio.thermalNoise=-110dBm
**.wlan*.radio.sensitivity=-90dBm
**.wlan*.radio.channelModel = 1 #1/2  rayleigh/awgn
**.wlan*.radio.berTableFile="../per_table_80211g_Trivellato.dat"


#/ parameters : DYMOUM
**.no_path_acc_ = false
**.reissue_rreq_ = false
**.s_bit_ = false
**.hello_ival_ = 0
**.MaxPktSec = 20 #// 10
**.promiscuous = false
**.NetDiameter = 10
//**.RouteTimeOut = 3000
**.RouteTimeOut = 10000
//**.RouteDeleteTimeOut = 3000*5 #//5*RouteTimeOut
**.RouteDeleteTimeOut = 10000*5 #//5*RouteTimeOut
**.RREQWaitTime = 1000
**.RREQTries =3
**.noRouteBehaviour=1

#   //  parameters: AODVUU;
**.log_to_file = false
**.hello_jittering = true
**.optimized_hellos = true
**.expanding_ring_search = true
**.local_repair = true
**.rreq_gratuitous = true
#**.debug = false
**.rt_log_interval = 0
**.unidir_hack = 0
**.internet_gw_mode = 0
**.receive_n_hellos = 1
**.ratelimit = 1000
**.llfeedback = false# //1000
**.wait_on_reboot = 0
**.active_timeout = 6000 # // time in ms
**.internet_gw_address = "0.0.0.0"

#  //  parameters: DSRUU;
**.PrintDebug = true
**.FlushLinkCache = true
**.PromiscOperation = false ###mod
**.UseNetworkLayerAck = false ###mod
**.BroadcastJitter = 20 # 20  ms
**.RouteCacheTimeout = 300 #300 seconds
**.SendBufferTimeout = 300# //30 s
**.SendBufferSize = -1
**.RequestTableSize = -1
**.RequestTableIds = -1
**.MaxRequestRexmt = -1 #// 16,
**.MaxRequestPeriod = 10 #//10 SECONDS
**.RequestPeriod = 500 #//500  MILLISECONDS
**.NonpropRequestTimeout = 30# //30  MILLISECONDS
**.RexmtBufferSize = -1 #//MAINT_BUF_MAX_LEN
**.MaintHoldoffTime = 250# //250 MILLISECONDS
**.MaxMaintRexmt = 2 # //2
**.TryPassiveAcks = true #//1
**.PassiveAckTimeout = 100# //100 MILLISECONDS
**.GratReplyHoldOff = 1 #, //1 SECONDS
**.MAX_SALVAGE_COUNT = 15 # //15
**.LifoSize = 20
**.PathCache = true
**.ETX_Active=false
**.ETXHelloInterval = 1 #, // Second
**.ETXWindowNumHello = 10
**.ETXRetryBeforeFail=-1
**.RREPDestinationOnly = false
**.RREQMaxVisit =5 # // Max Number that a RREQ can be processes by a node

#// Olsr
**.Willingness=3
**.Hello_ival=2
**.Tc_ival=5
**.Mid_ival=5
**.use_mac =0 #1
**.Mpr_algorithm =  1
**.routing_algorithm =   1
**.Link_quality = 2
**.Fish_eye = false
**.Tc_redundancy =    3
**.Link_delay = true #//default false
**.C_alpha=0.2

#// DSDV
**.manetroutingprotocol.hellomsgperiod_DSDV = 1 # //Period of DSDV hello message generation [seconds]
**.manetroutingprotocol.manetroutingprotocol.routeLifetime = 5s # // ;[seconds]
**.netmask = "255.255.0.0" # //
**.MaxVariance_DSDV = 1
**.RNGseed_DSDV = 0

