[General]
network = ARPTest
#perform-gc = false
#record-eventlog = true
warnings = true
sim-time-limit = 500s
cpu-time-limit = 600s
total-stack-kb = 2048 # 2MByte, increase if necessary
#debug-on-errors = true

tkenv-plugin-path = ../../../Etc/plugins

[Config ARPTest]
# tcp apps
**.host*.numTcpApps = 0
**.host*.tcpAppType = "TCPSessionApp"

**.client.numTcpApps = 1
**.client.tcpAppType = "TCPSessionApp"
**.client.tcpApp[*].active = true
**.client.tcpApp[*].address = ""
**.client.tcpApp[*].port = -1
**.client.tcpApp[*].connectAddress = "server"
**.client.tcpApp[*].connectPort = 1000
**.client.tcpApp[*].tOpen = 1.0s
**.client.tcpApp[*].tSend = 1.1s
**.client.tcpApp[*].sendBytes = 1MB
**.client.tcpApp[*].sendScript = ""
**.client.tcpApp[*].tClose = 0

#**.server.tcpAppType="TCPSinkApp"
**.server.numTcpApps = 1
**.server.tcpAppType = "TCPEchoApp"
**.server.tcpApp[0].address = ""
**.server.tcpApp[0].port = 1000
**.server.tcpApp[0].echoFactor = 2.0
**.server.tcpApp[0].echoDelay = 0

# tcp settings
**.tcp.mss = 1024
**.tcp.advertisedWindow = 14336  # 14*mss
**.tcp.sendQueueClass = "TCPVirtualDataSendQueue"
**.tcp.receiveQueueClass = "TCPVirtualDataRcvQueue"
**.tcp.tcpAlgorithmClass = "TCPReno"
**.tcp.recordStats = true

# ip settings
**.IPForward = false  # Router's is hardwired "true"

# hook names
**.qosBehaviorClass = "EnqueueWithoutQoS"

# Ethernet NIC configuration
**.eth[*].mac.txrate = 10Mbps
**.eth[*].mac.duplexEnabled = true

# Queues
**.ppp[*].queueType = "DropTailQueue"
**.ppp[*].queue.frameCapacity = 10
**.eth[*].queueType = "DropTailQueue"
**.eth[*].queue.frameCapacity = 10

# Ethernet switch
**.switch*.relayUnitType = "MACRelayUnitNP"
**.relayUnit.addressTableSize = 100
**.relayUnit.agingTime = 120s
**.relayUnit.bufferSize = 1MB
**.relayUnit.highWatermark = 512KB
**.relayUnit.pauseUnits = 300  # pause for 300*512 bit (19200 byte) time
**.relayUnit.addressTableFile = ""
**.relayUnit.numCPUs = 2
**.relayUnit.processingTime = 2us

**.mac[*].maxQueueSize = 50

**.mac[*].txrate = 0   # autoconfig
**.mac[*].duplexEnabled = true

**.apply-default = true


