#
# To try: ./LANs -f bus.ini
#

[General]
ini-warnings = false
sim-time-limit = 120s

tkenv-plugin-path = ../../../Etc/plugins

**.vector-recording = false

[Config BusLAN]
network = BusLAN
**.hostA.cli.destStation = ""
**.cli.destStation = "hostA"
**.cli.waitTime = exponential(1s)

include defaults.ini
