#
# To try: ./LANs -f switch.ini
#

[General]
ini-warnings = false

sim-time-limit = 120s

tkenv-plugin-path = ../../../Etc/plugins

**.enable-recording = false

[Config SwitchedDuplexLAN]
network = SwitchedDuplexLAN
**.hostA.cli.destStation = ""
**.cli.destStation = "hostA"
**.cli.waitTime = exponential(10ms)

include defaults.ini
