include largeNet.ini

[Config LargeNet]
sim-time-limit = 3s
fingerprint = "3173-4c33"
