#
# To try: ./LANs -f hub.ini
#

[General]
preload-ned-files = *.ned @../../../nedfiles.lst
ini-warnings = false
sim-time-limit = 120s

cmdenv-express-mode = true

tkenv-plugin-path = ../../../Etc/plugins
tkenv-default-run = 1

**.enable-recording = false

[Config Hub1]
network = HubLAN
**.hostA.cli.destStation = ""
**.cli.destStation = "hostA"
**.cli.waitTime = exponential(1)

[Config Hub2]
# bigger load, frequent collisions
network = HubLAN
**.hostA.cli.destStation = ""
**.cli.destStation = "hostA"
**.cli.waitTime = exponential(0.001)

[Config Hub3]
# manual address assignment
network = HubLAN
**.hostA.mac.address = "112233445566"
**.hostA.cli.destAddress = ""
**.cli.destAddress = "112233445566"
**.cli.destStation = ""
**.cli.waitTime = exponential(1)

[Config Hub4]
# one station can only support 10Mb
network = HubLAN
**.hostC.mac.txrate = 10000000  # 10Mb
**.hostA.cli.destStation = ""
**.cli.destStation = "hostA"
**.cli.waitTime = exponential(1)

include defaults.ini

