#
# To try: ./LANs -f hub.ini
#

[General]
network = HubLAN

ini-warnings = false
sim-time-limit = 120s

tkenv-plugin-path = ../../../Etc/plugins

**.enable-recording = false

[Config Hub1]
**.hostA.cli.destStation = ""
**.cli.destStation = "hostA"
**.cli.waitTime = exponential(1)

[Config Hub2]
# bigger load, frequent collisions
**.hostA.cli.destStation = ""
**.cli.destStation = "hostA"
**.cli.waitTime = exponential(0.001)

[Config Hub3]
# manual address assignment
**.hostA.mac.address = "112233445566"
**.hostA.cli.destAddress = ""
**.cli.destAddress = "112233445566"
**.cli.destStation = ""
**.cli.waitTime = exponential(1)

[Config Hub4]
# one station can only support 10Mb
**.hostC.mac.txrate = 10000000  # 10Mb
**.hostA.cli.destStation = ""
**.cli.destStation = "hostA"
**.cli.waitTime = exponential(1)

include defaults.ini

