[General]
sim-time-limit = 300s

# ip settings
**.ip.procDelay = 1us

# NIC configuration
**.eth[*].queue.typename = "EtherQosQueue"
**.eth[*].queue.dataQueue.typename = "DropTailQueue"
**.eth[*].queue.dataQueue.frameCapacity = 100

# BGP setting
**.bgpConfig = xmldoc("config.xml")

description = "BGP example 1"
network = BGPTest
fingerprint =  f788-081c/tplx
# UDPApp parameters
*.H*.numApps = 3
**.app[0].messageLength = 32 bytes
**.app[0].sendInterval = 60s
**.app[0].localPort = 1230
**.app[0].destPort = 1230

**.app[1].messageLength = 32 bytes
**.app[1].sendInterval = 60s
**.app[1].localPort = 1231
**.app[1].destPort = 1231

**.app[2].messageLength = 32 bytes
**.app[2].sendInterval = 60s
**.app[2].localPort = 1232
**.app[2].destPort = 1232

**.H1.app[0].typename = "UdpBasicApp"
**.H1.app[0].destAddresses = "200.0.2.2"
**.H1.app[1].typename = "UdpBasicApp"
**.H1.app[1].destAddresses = "200.0.3.2"
**.H1.app[2].typename = "UdpBasicApp"
**.H1.app[2].destAddresses = "100.0.4.2"

**.H2.app[0].typename = "UdpBasicApp"
**.H2.app[0].destAddresses = "100.0.1.2"
**.H2.app[1].typename = "UdpBasicApp"
**.H2.app[1].destAddresses = "200.0.3.2"
**.H2.app[2].typename = "UdpBasicApp"
**.H2.app[2].destAddresses = "100.0.4.2"

**.H3.app[0].typename = "UdpBasicApp"
**.H3.app[0].destAddresses = "100.0.1.2"
**.H3.app[1].typename = "UdpBasicApp"
**.H3.app[1].destAddresses = "200.0.2.2"
**.H3.app[2].typename = "UdpBasicApp"
**.H3.app[2].destAddresses = "100.0.4.2"

**.H4.app[0].typename = "UdpBasicApp"
**.H4.app[0].destAddresses = "100.0.1.2"
**.H4.app[1].typename = "UdpBasicApp"
**.H4.app[1].destAddresses = "200.0.2.2"
**.H4.app[2].typename = "UdpBasicApp"
**.H4.app[2].destAddresses = "200.0.3.2"
