[General]
#debug-on-errors = true
output-scalar-file = results.sca
output-scalar-precision = 2
sim-time-limit = 40s
#snapshot-file = omnetpp.sna

cmdenv-express-mode = true
cmdenv-event-banners = false

tkenv-plugin-path = ../../../etc/plugins

**.app[0].**.scalar-recording = true
**.scalar-recording = false
**.vector-recording = false

# ip settings
**.ip.procDelay = 1us
**.rsvp.procDelay = 1us

# NIC configuration
**.eth[*].queue.typename = "EtherQosQueue"
**.eth[*].queue.dataQueue.typename = "DropTailQueue"
**.eth[*].queue.dataQueue.frameCapacity = 100

#tcp settings
**.tcp.mss = 1024
**.tcp.advertisedWindow = 14336
#**.tcp.sendQueueClass = "TCPMsgBasedSendQueue"
#**.tcp.receiveQueueClass = "TCPMsgBasedRcvQueue"
**.tcp.tcpAlgorithmClass = "TcpReno"
**.tcp.recordStats = false

# OSPF configuration
**.ospfConfig = xmldoc("OSPFConfig.xml")

# bgp settings
**.bgpConfig = xmldoc("BGPConfig.xml")

[Config config1]
# Multi OPSF routing test + BGP
description = "Multi OPSF routing test + BGP"
network = BGPNet

#UDP Host
**.H*.eth.mac.promiscuous = false

# UDP traffic generation parameters
**.HA11.numApps = 1
**.HA11.app[*].typename = "UdpBasicApp"
**.HA11.app[0].localPort = 1234
**.HA11.app[0].destPort = 5678
**.HA11.app[0].messageLength = 32 bytes
**.HA11.app[0].sendInterval = 1s
**.HA11.app[0].destAddresses = "192.170.1.1"

**.HB11.numApps = 1
**.HB11.app[*].typename = "UdpSink"
**.HB11.app[0].localPort = 5678
