[General]
network = VideoStreamingShowcase
scheduler-class = "inet::RealTimeScheduler"
sim-time-limit = 225s

**.crcMode = "computed"
**.fcsMode = "computed"

*.host1.eth[0].typename = "ExtUpperEthernetInterface"
*.host1.eth[0].device = "tapa"
*.host1.eth[0].copyConfiguration = "copyFromExt"

*.host2.eth[0].typename = "ExtUpperEthernetInterface"
*.host2.eth[0].device = "tapb"
*.host2.eth[0].copyConfiguration = "copyFromExt"

*.configurator.config = xml("<config> \
                                <interface hosts='router' names='eth0' address='192.168.2.99' netmask='255.255.255.0'/> \
                                <interface hosts='router' names='eth1' address='192.168.3.99' netmask='255.255.255.0'/> \
                             </config>")
*.router.ipv4.natTable.config = xml("<config> \
                                        <entry type='prerouting' \
                                        packetFilter='has(Ipv4Header) &amp;&amp; Ipv4Header.destAddress.str() == \"192.168.2.99\"' \
                                        srcAddress='192.168.3.99' destAddress='192.168.3.20'/> \
                                     </config>")

*.visualizer.*.interfaceTableVisualizer.displayInterfaceTables = true
*.visualizer.*.interfaceTableVisualizer.nodeFilter = "not name=~switch*"

**.duplexMode = true
**.eth*.bitrate = 100Mbps