[General]
total-stack = 32MiB
network = inet.examples.scfr.xkalp.TSTest
#debug-on-errors = true
sim-time-limit = 20min
warmup-period = 2min	# depends on 'startTime' of applications and video trace duration (~10 min. for Terminator 2)
repeat = 1


########################################################################
### Results recording
########################################################################
#  select SQLite extensions
#outputscalarmanager-class = "cSQLiteOutputScalarManager"
outputvectormanager-class = "cSQLiteOutputVectorManager"
result-dir = results/test  # included as default; to be changed in architecture-specific ini
**.scalar-recording = true
**.client.*.result-recording-modes = all
**.client.**.vector-recording = true
**.vector-recording = false

########################################################################
### Command environment
########################################################################
cmdenv-express-mode = true
cmdenv-performance-display = true	# for monitoring
cmdenv-status-frequency = 2min	# default is 2s

########################################################################
### Tk environment
########################################################################
tkenv-plugin-path = ../../../etc/plugins

########################################################################
### client
########################################################################
**.client.localPort = 9999
**.client.serverAddress = "server"
**.client.serverPort = 3088
**.client.startTime = uniform(1s, 5s)
**.client.clockFrequency = 90018Hz	# +200 ppm deviation from the nominal value

########################################################################
### server
########################################################################
**.server.serverPort = 3088
**.server.fps = 30  # frames per second
**.server.appOverhead = 12B  # size of application layer overhead (e.g., RTP header)
**.server.maxPayloadSize = 1460B  # maximum size of payload to be carried in RTP packets
**.server.traceFile = "../../videoTraces/silenceOfTheLambs_verbose"
**.server.clockFrequency = 89982Hz	# -200 ppm deviation from the nominal value

[Config Test1]
sqlite.sqlite-vector-database = "results/test/tstest1-vector.db"
**.client.clockFrequency = 90018Hz	# +200 ppm deviation from the nominal value
**.server.clockFrequency = 89982Hz	# -200 ppm deviation from the nominal value

[Config Test2]
sqlite.sqlite-vector-database = "results/test/tstest2-vector.db"
**.client.clockFrequency = 89982Hz	# +200 ppm deviation from the nominal value
**.server.clockFrequency = 90018Hz	# -200 ppm deviation from the nominal value