[General]

network = VoIPStreamLargeNet

warnings = true
num-rngs = 8
rng-class = "cMersenneTwister"
sim-time-limit = 100s
total-stack = 2MiB # increase if necessary

#[Config config1]
# udp app
**.voipClient.numApps = 1
**.voipClient.app[0].typename = "VoipStreamReceiver"
**.voipClient.app[0].localPort = 1000
**.voipClient.app[0].resultFile = "results/results.wav"

**.voipServer.numApps = 1
**.voipServer.app[0].typename = "VoipStreamSender"
**.voipServer.app[0].packetTimeLength = 20ms
**.voipServer.app[0].voipHeaderSize = 4B
**.voipServer.app[0].sampleRate = 8000Hz
**.voipServer.app[0].compressedBitRate = 40000bps
**.voipServer.app[0].voipSilenceThreshold = 100
**.voipServer.app[0].repeatCount = 2
**.voipServer.app[0].traceFileName = "results/srctrace.wav"
# **.voipServer.app[0].filemode = "random"

#**.voipServer.app[0].soundFile = "../soundFiles/Beatify_Dabei_cut.mp3"
#**.voipServer.app[0].soundFile = "../soundFiles/Beatify_Ria_cut.mp3"
**.voipServer.app[0].soundFile = "../soundFiles/husten.mp3"
#**.voipServer.app[0].soundFile = "../soundFiles/husten.wav"
#**.voipServer.app[0].soundFile = "../soundFiles/langes blabla.wav"
#**.voipServer.app[0].soundFile = "../soundFiles/ria_44100_stereo.mp3" #OK
#**.voipServer.app[0].soundFile = "../soundFiles/ria_8000_mono.mp3" #BUG extra 576 sample at the end
#**.voipServer.app[0].soundFile = "../soundFiles/ria_8000_stereo.mp3"  #BUG: sinus noise at 0.15-0.22s, extra 576 sample at the end
#**.voipServer.app[0].soundFile = "../soundFiles/steuern.wav"
#**.voipServer.app[0].soundFile = "../soundFiles/test.wav"


**.voipServer.app[0].localPort = 1000
**.voipServer.app[0].destPort = 1000
**.voipServer.app[0].destAddress = "voipClient"

# tcp apps (off)

# ip settings
**.forwarding = false  # Router's is hardwired "true"

# Arp configuration
**.arp.retryTimeout = 1s
**.arp.retryCount = 3
**.arp.cacheTimeout = 100s
**.ipv4.arp.proxyArpInterfaces = "*"  # Host's is hardwired "false"

# Ethernet NIC configuration
**.eth[*].duplexMode = true

# Queues
**.eth[*].queue.packetCapacity = 10  # in routers

# Ethernet switch
**.switch*.bridging.typename = "MacRelayUnit"

VoIPStreamLargeNet.n = 8   # number of switches on backbone

VoIPStreamLargeNet.*s = 1   # uncomment for testing: one LAN of each type on each switch
VoIPStreamLargeNet.*m = 1   # uncomment for testing: one LAN of each type on each switch
VoIPStreamLargeNet.*l = 1   # uncomment for testing: one LAN of each type on each switch

VoIPStreamLargeNet.*.n = 8 # number of hosts connected to a switch in each LAN
VoIPStreamLargeNet.*.h = 5 # number of hosts connected to a hub in each LAN
VoIPStreamLargeNet.*.b = 7 # number of hosts connected to a bus in each LAN

VoIPStreamLargeNet.**.cli.reqLength = intuniform(50,1400)*1B
VoIPStreamLargeNet.**.cli.respLength = intWithUnit(truncnormal(5000B,5000B))
VoIPStreamLargeNet.**.cli.sendInterval = exponential(30s)

VoIPStreamLargeNet.*.*host[0].cli.destAddress = "serverA"
VoIPStreamLargeNet.*.*host[1].cli.destAddress = "serverB"
VoIPStreamLargeNet.*.*host[2].cli.destAddress = "serverB"
VoIPStreamLargeNet.*.*host[3].cli.destAddress = "serverC"
VoIPStreamLargeNet.*.*host[4].cli.destAddress = "serverC"
VoIPStreamLargeNet.*.*host[*].cli.destAddress = "serverD"

VoIPStreamLargeNet.server*.cli.destAddress = ""
