[General]
sim-time-limit = 200s
#debug-on-errors = true
output-scalar-file = results.sca
output-scalar-precision = 5

cmdenv-express-mode = true
cmdenv-event-banners = false

tkenv-plugin-path = ../../../etc/plugins

**.udpApp[0].**.scalar-recording = true
**.scalar-recording = false
**.vector-recording = false

# ip settings
**.ip.procDelay = 1us
**.rsvp.procDelay = 1us

# NIC configuration
**.queueType = "DropTailQueue"
**.queue.frameCapacity = 100

#tcp settings
**.tcp.mss = 1024
**.tcp.advertisedWindow = 14336
#**.tcp.sendQueueClass = "TCPMsgBasedSendQueue"
#**.tcp.receiveQueueClass = "TCPMsgBasedRcvQueue"
**.bgp.dataTransferMode = "object"
**.tcp.tcpAlgorithmClass = "TCPReno"
**.tcp.recordStats = false

# OSPF configuration
**.ospfConfig = xmldoc("OSPFConfig.xml")

# bgp settings
**.bgpConfig = xmldoc("BGPConfig.xml")

[Config config1]
# Multi OPSF routing test + BGP
description = "BGP complete test"
network = BGPTest

#UDP Host
**.H*.eth.mac.promiscuous = false

# UDPApp parameters
**.numUdpApps = 1
**.udpApp[0].messageLength = 32 bytes
**.udpApp[0].sendInterval = 5s
**.udpApp[0].localPort = 1234
**.udpApp[0].destPort = 1234

**.HA11.udpApp[*].typename = "UDPBasicApp"
**.HA11.udpApp[0].destAddresses = "172.10.8.2"
**.HB11.udpApp[*].typename = "UDPBasicApp"
**.HB11.udpApp[0].destAddresses = "172.15.0.2"
**.HD11.udpApp[*].typename = "UDPBasicApp"
**.HD11.udpApp[0].destAddresses = "172.1.0.2"
**.HE11.udpApp[*].typename = "UDPBasicApp"
**.HE11.udpApp[0].destAddresses = "172.10.4.2"

**.HA12.udpApp[*].typename = "UDPSink"
**.HB12.udpApp[*].typename = "UDPSink"
**.HD12.udpApp[*].typename = "UDPSink"
**.HE12.udpApp[*].typename = "UDPSink"
