[General]
network = RateVisualizerExample
sim-time-limit = 5s
description = "Per-station 802.11 data rate bar chart above the access point"

# playground
**.constraintAreaMinX = 0m
**.constraintAreaMinY = 0m
**.constraintAreaMinZ = 0m
**.constraintAreaMaxX = 600m
**.constraintAreaMaxY = 700m
**.constraintAreaMaxZ = 0m

# static node positions (host-level mobility only; must not match the radio antenna's
# nested mobility, hence *.*.mobility rather than **.mobility)
*.*.mobility.typename = "StationaryMobility"
*.*.mobility.initFromDisplayString = false
*.*.mobility.initialZ = 0m
*.server.mobility.initialX = 100m
*.server.mobility.initialY = 450m
*.accessPoint.mobility.initialX = 300m
*.accessPoint.mobility.initialY = 450m
*.sta1.mobility.initialX = 500m
*.sta1.mobility.initialY = 300m
*.sta2.mobility.initialX = 550m
*.sta2.mobility.initialY = 450m
*.sta3.mobility.initialX = 500m
*.sta3.mobility.initialY = 600m

# simplified 802.11 management (no association exchange needed for this example)
*.accessPoint.wlan[*].mgmt.typename = "Ieee80211MgmtApSimplified"
*.sta*.wlan[*].mgmt.typename = "Ieee80211MgmtStaSimplified"
*.sta*.wlan[*].agent.typename = ""
*.accessPoint.wlan[*].address = "10:00:00:00:00:00"
*.sta*.wlan[*].mgmt.accessPointAddress = "10:00:00:00:00:00"

# radio: advertise the full 802.11g rate set so 6/24/54 Mbps are all available
**.wlan[*].radio.transmitter.power = 100mW
**.wlan[*].radio.transmitter.centerFrequency = 2.4GHz
**.wlan[*].radio.receiver.sensitivity = -85dBm
**.wlan[*].radio.receiver.snirThreshold = 4dB
**.wlan[*].opMode = "g(erp)"

# UDP downlink from the server, through the access point, to each station
*.server.numApps = 3
*.server.app[*].typename = "UdpBasicApp"
*.server.app[0].destAddresses = "sta1"
*.server.app[1].destAddresses = "sta2"
*.server.app[2].destAddresses = "sta3"
*.server.app[*].destPort = 5000
*.server.app[*].messageLength = 1000B
*.server.app[*].sendInterval = 10ms
*.server.app[*].startTime = uniform(0s, 10ms)

*.sta*.numApps = 1
*.sta*.app[0].typename = "UdpSink"
*.sta*.app[0].localPort = 5000

# per-receiver PHY data rates the access point uses towards each station
# (keys are peer interface module paths, resolved to their MAC address at run time)
*.accessPoint.wlan[*].mac.dcf.rateSelection.dataFrameBitratePerReceiver = {"sta1.wlan[0]": 6Mbps, "sta2.wlan[0]": 24Mbps, "sta3.wlan[0]": 54Mbps}

# enable the per-station rate bar chart, only for the access point
*.visualizer.*.rateVisualizer.displayRates = true
*.visualizer.*.rateVisualizer.maxRate = 54Mbps
*.visualizer.*.rateVisualizer.nodeFilter = "accessPoint"
