[General]
#debug-on-errors = true
sim-time-limit = 3000s
seed-0-mt = 5
network = inet.examples.adhoc.net80211_aodv_VITA.Net80211_aodv_VITA

cmdenv-express-mode = true
tkenv-plugin-path = ../../../etc/plugins
#tkenv-default-run=1

description = "Aodv Simple test using WiMax (802.16e)"

*.playgroundSizeX = 1000
*.playgroundSizeY = 1000
*.numFixHosts = 1
*.numHosts = 3

# channel physical parameters
*.channelcontrol.numChannels = 5

# mobility
**.WiMAX_Basisstation[0].mobility.x = 500
**.WiMAX_Basisstation[0].mobility.y = 500

**.host[*].mobilityType = "inet.mobility.NullMobility"

**.host[0].mobility.x = 100
**.host[0].mobility.y = 100
**.host[1].mobility.x = 700
**.host[1].mobility.y = 300
**.host[2].mobility.x = 200
**.host[2].mobility.y = 700



#**.host*.mobilityType = "MassMobility"
#**.host*.mobility.changeInterval = truncnormal(2s, 0.5s)
#**.host*.mobility.changeAngleBy = normal(0, 30)
#**.host*.mobility.speed = truncnormal(20, 8) *1mps
#**.host*.mobility.updateInterval = 0.1s

#AKI
**.local_port = 3333
**.dest_port = 3333
**.host[0].aki.message_length = 10
**.host[0].aki.message_freq = 1
**.host[0].aki.dest_addresses = "145.236.0.2"          #provisorisch
**.host[1].aki.message_length = 10
**.host[1].aki.message_freq = 1
**.host[1].aki.dest_addresses = "145.236.0.1"          #provisorisch   
**.host[2].aki.message_length = 10
**.host[2].aki.message_freq = 1
**.host[2].aki.dest_addresses = "145.236.0.1"          #provisorisch 
**.host[3].aki.message_length = 10
**.host[3].aki.message_freq = 1
**.host[3].aki.dest_addresses = "145.236.0.2"          #provisorisch 


*.WiMAX_Basisstation[*].tcpApp[*].port = 3333
#*.WiMAX_Basisstation[*].tcpApp[*].connectAddress = 
*.WiMAX_Basisstation[*].aki.aki_timer = 1
*.WiMAX_Basisstation[*].aki.mess_timer = 10
*.WiMAX_Basisstation[*].aki.anfangs_paket = 0
*.WiMAX_Basisstation[*].aki.message_length = 64
*.WiMAX_Basisstation[*].aki.message_freq = 1
*.WiMAX_Basisstation[*].aki.timer_freq = 1
*.WiMAX_Basisstation[*].aki.dest_addresses = "145.236.0.1" 
*.WiMAX_Basisstation[*].aki.is_Sender = true
*.WiMAX_Basisstation[*].aki.receiversAdressId = 2
*.WiMAX_Basisstation[*].aki.num_Clients = 1
*.WiMAX_Basisstation[*].ieee80216NicBS.bsReceiver.csReceiver.traffic_classification.voip_max_latency = 160
*.WiMAX_Basisstation[*].ieee80216NicBS.bsReceiver.csReceiver.traffic_classification.voip_tolerated_jitter = 50
*.WiMAX_Basisstation[*].ieee80216NicBS.bsReceiver.csReceiver.traffic_classification.sf_request_timeout = 0.8
*.WiMAX_Basisstation[*].ieee80216NicBS.bsReceiver.radioReceiver.transmitterPower = 12mW
*.WiMAX_Basisstation[*].ieee80216NicBS.bsReceiver.radioReceiver.bitrate = 2E+6bps
*.WiMAX_Basisstation[*].ieee80216NicBS.bsReceiver.radioReceiver.thermalNoise = -105dBm
*.WiMAX_Basisstation[*].ieee80216NicBS.bsReceiver.radioReceiver.standardabweichung = 0.5
*.WiMAX_Basisstation[*].ieee80216NicBS.bsReceiver.radioReceiver.snirThreshold = 4dB
*.WiMAX_Basisstation[*].ieee80216NicBS.bsReceiver.radioReceiver.sensitivity = -85dBm
*.WiMAX_Basisstation[*].ieee80216NicBS.bsTransceiver.csTransceiver.traffic_classification.voip_max_latency = 160
*.WiMAX_Basisstation[*].ieee80216NicBS.bsTransceiver.csTransceiver.traffic_classification.voip_tolerated_jitter = 50
*.WiMAX_Basisstation[*].ieee80216NicBS.bsTransceiver.csTransceiver.traffic_classification.sf_request_timeout = 0.8
*.WiMAX_Basisstation[*].ieee80216NicBS.bsTransceiver.cpsTransceiver.scheduling.equal_weights_for_wrr = false
*.WiMAX_Basisstation[*].ieee80216NicBS.bsTransceiver.cpsTransceiver.scheduling.scheduler = "WRR"
*.WiMAX_Basisstation[*].ieee80216NicBS.bsTransceiver.cpsTransceiver.scheduling.weight_ugs = 4
*.WiMAX_Basisstation[*].ieee80216NicBS.bsTransceiver.cpsTransceiver.scheduling.weight_rtps = 4
*.WiMAX_Basisstation[*].ieee80216NicBS.bsTransceiver.cpsTransceiver.scheduling.weight_ertps = 2
*.WiMAX_Basisstation[*].ieee80216NicBS.bsTransceiver.cpsTransceiver.scheduling.weight_nrtps = 1
*.WiMAX_Basisstation[*].ieee80216NicBS.bsTransceiver.cpsTransceiver.scheduling.weight_be = 1
*.WiMAX_Basisstation[*].ieee80216NicBS.bsTransceiver.radioTransceiver.transmitterPower = 12mW
*.WiMAX_Basisstation[*].ieee80216NicBS.bsTransceiver.radioTransceiver.bitrate = 2E+6bps
*.WiMAX_Basisstation[*].ieee80216NicBS.bsTransceiver.radioTransceiver.thermalNoise = -105.5dBm
*.WiMAX_Basisstation[*].ieee80216NicBS.bsTransceiver.radioTransceiver.standardabweichung = 0.5
*.WiMAX_Basisstation[*].ieee80216NicBS.bsTransceiver.radioTransceiver.snirThreshold = 4dB
*.WiMAX_Basisstation[*].ieee80216NicBS.bsTransceiver.radioTransceiver.sensitivity = -85dBm
*.WiMAX_Basisstation[*].ieee80216NicBS.controlPlane.cp_basestation.basestationid =  "0A:00:00:00:00:01"
*.WiMAX_Basisstation[*].ieee80216NicBS.controlPlane.cp_basestation.DLMapInterval = 0.002 
*.WiMAX_Basisstation[*].ieee80216NicBS.controlPlane.cp_basestation.DownlinkChannel = 0
*.WiMAX_Basisstation[*].ieee80216NicBS.controlPlane.cp_basestation.startFrame = 3
*.WiMAX_Basisstation[*].ieee80216NicBS.controlPlane.cp_basestation.UplinkChannel = 0
*.WiMAX_Basisstation[*].ieee80216NicBS.controlPlane.cp_basestation.UplinkDownlinkTTG = 0.000002 
*.WiMAX_Basisstation[*].ieee80216NicBS.controlPlane.cp_basestation.enablePacking = true
*.WiMAX_Basisstation[*].ieee80216NicBS.controlPlane.cp_basestation.downlink_per_second = 0
*.WiMAX_Basisstation[*].ieee80216NicBS.controlPlane.cp_basestation.downlink_to_uplink = 0.5
*.WiMAX_Basisstation[*].ieee80216NicBS.controlPlane.cp_basestation.useULGrantWaitingQueue = false
*.WiMAX_Basisstation[*].ieee80216NicBS.controlPlane.cp_basestation.grant_compensation = 1
*.WiMAX_Basisstation[*].ieee80216NicBS.controlPlane.cp_serviceflows.lower_bound_for_BE_traffic = 0
*.WiMAX_Basisstation[*].ieee80216NicBS.controlPlane.cp_serviceflows.upper_bound_for_BE_grant = 64000

*.host[*].aki.aki_timer = 0.1
*.host[*].aki.mess_timer = 10
*.host[*].aki.anfangs_paket = 0
*.host[*].aki.message_length = 64
*.host[*].aki.message_freq = 1
*.host[*].aki.timer_freq = 1
*.host[*].aki.dest_addresses = "145.236.0.2"
*.host[*].aki.is_Sender = false
*.host[*].aki.receiversAdressId = 1
*.host[*].aki.num_Clients = 1
*.host[*].ieee80216NicMS.msReceiver.csReceiver.traffic_classification.voip_max_latency = 160
*.host[*].ieee80216NicMS.msReceiver.csReceiver.traffic_classification.voip_tolerated_jitter = 50
*.host[*].ieee80216NicMS.msReceiver.csReceiver.traffic_classification.sf_request_timeout = 0.8
*.host[*].ieee80216NicMS.msReceiver.radioReceiver.transmitterPower = 12mW
*.host[*].ieee80216NicMS.msReceiver.radioReceiver.bitrate = 2E+6bps
*.host[*].ieee80216NicMS.msReceiver.radioReceiver.thermalNoise = -105.5dBm
*.host[*].ieee80216NicMS.msReceiver.radioReceiver.standardabweichung = 0
*.host[*].ieee80216NicMS.msReceiver.radioReceiver.snirThreshold = 4dB
*.host[*].ieee80216NicMS.msReceiver.radioReceiver.sensitivity = -85dBm
*.host[*].ieee80216NicMS.msTransceiver.csTransceiver.traffic_classification.voip_max_latency = 160
*.host[*].ieee80216NicMS.msTransceiver.csTransceiver.traffic_classification.voip_tolerated_jitter = 50
*.host[*].ieee80216NicMS.msTransceiver.csTransceiver.traffic_classification.sf_request_timeout = 0.8
*.host[*].ieee80216NicMS.msTransceiver.cpsTransceiver.scheduling.equal_weights_for_wrr = false
*.host[*].ieee80216NicMS.msTransceiver.cpsTransceiver.scheduling.scheduler = "WRR"
*.host[*].ieee80216NicMS.msTransceiver.cpsTransceiver.scheduling.weight_ugs = 4
*.host[*].ieee80216NicMS.msTransceiver.cpsTransceiver.scheduling.weight_rtps = 4
*.host[*].ieee80216NicMS.msTransceiver.cpsTransceiver.scheduling.weight_ertps = 2
*.host[*].ieee80216NicMS.msTransceiver.cpsTransceiver.scheduling.weight_nrtps = 1
*.host[*].ieee80216NicMS.msTransceiver.cpsTransceiver.scheduling.weight_be = 1
*.host[*].ieee80216NicMS.msTransceiver.radioTransceiver.transmitterPower = 12mW
*.host[*].ieee80216NicMS.msTransceiver.radioTransceiver.bitrate = 2E+6bps
*.host[*].ieee80216NicMS.msTransceiver.radioTransceiver.thermalNoise =  -105.5dBm
*.host[*].ieee80216NicMS.msTransceiver.radioTransceiver.standardabweichung = 0.5
*.host[*].ieee80216NicMS.msTransceiver.radioTransceiver.snirThreshold = 4dB
*.host[*].ieee80216NicMS.msTransceiver.radioTransceiver.sensitivity = -85dBm
*.host[*].ieee80216NicMS.controlPlane.cp_mobilestation.address = "auto"
*.host[*].ieee80216NicMS.controlPlane.cp_mobilestation.scanintervall = 0.01 
*.host[*].ieee80216NicMS.controlPlane.cp_mobilestation.numChannels = 2
*.host[*].ieee80216NicMS.controlPlane.cp_mobilestation.InitialRangingFail = 0.1 
*.host[*].ieee80216NicMS.controlPlane.cp_mobilestation.InitialRangingTimeOut = 0.5
*.host[*].ieee80216NicMS.controlPlane.cp_mobilestation.rangingintervall = 0.1
*.host[*].ieee80216NicMS.controlPlane.cp_mobilestation.registrationResponseTimeout = 0.5
*.host[*].ieee80216NicMS.controlPlane.cp_mobilestation.scanDuration = 3
*.host[*].ieee80216NicMS.controlPlane.cp_mobilestation.interleavingInterval = 3
*.host[*].ieee80216NicMS.controlPlane.cp_mobilestation.scanIteration = 5
*.host[*].ieee80216NicMS.controlPlane.cp_mobilestation.DLMapInterval = 0.002 
*.host[*].ieee80216NicMS.controlPlane.cp_mobilestation.maxMargin = 25
*.host[*].ieee80216NicMS.controlPlane.cp_mobilestation.minMargin = 22
*.host[*].ieee80216NicMS.controlPlane.cp_mobilestation.FrameAnzahl = 10


# tcp apps (off)
**.numTcpApps = 0
**.tcpAppType = "TelnetApp"

# ping app (host[0] pinged by others)
# ping app (off)
**.pingApp.count = 0
**.pingApp.startTime = 1s
**.pingApp.stopTime = 0
**.pingApp.printPing = true

# tcp settings
**.tcp.mss = 1024
**.tcp.advertisedWindow = 14336  # 14*mss
**.tcp.sendQueueClass = "TCPMsgBasedSendQueue"
**.tcp.receiveQueueClass = "TCPMsgBasedRcvQueue"
**.tcp.tcpAlgorithmClass = "TCPReno"
**.tcp.recordStats = true

# ip settings
**.ip.procDelay = 10us

# manet routing
**.routingProtocol="AODVUU"

# nic settings
**.wlan.mgmt.frameCapacity = 10
**.wlan.mac.maxQueueSize = 14
**.wlan.mac.rtsThresholdBytes = 3000B
**.wlan.mac.bitrate = 54Mbps
**.wlan.mac.basicBitrate = 6Mbps  # 24Mbps
**.wlan.mac.retryLimit = 7
**.wlan.mac.cwMinData = 31
**.wlan.mac.cwMinBroadcast = 31

**.wlan.radio.transmitterPower=2.0mW
**.wlan.radio.bitrate=54Mbps 		
**.wlan.radio.sensitivity=-90dBm   	
**.wlan.radio.berTableFile="per_table_80211g_Trivellato.dat"

#/ parameters : DYMOUM
**.no_path_acc_ = false
**.reissue_rreq_ = false
**.s_bit_ = false
**.hello_ival_ = 0
**.MaxPktSec = 20 #// 10
**.promiscuous = false
**.NetDiameter = 10
//**.RouteTimeOut = 3000
**.RouteTimeOut = 10000
//**.RouteDeleteTimeOut = 3000*5 #//5*RouteTimeOut
**.RouteDeleteTimeOut = 10000*5 #//5*RouteTimeOut
**.RREQWaitTime = 1000
**.RREQTries =3
**.noRouteBehaviour=1

 #   //  parameters: AODVUU;
**.log_to_file = false
**.hello_jittering = true
**.optimized_hellos = true
**.expanding_ring_search = true
**.local_repair = true
**.rreq_gratuitous = true
#**.debug = false
**.rt_log_interval = 0
**.unidir_hack = 0
**.internet_gw_mode = 0
**.receive_n_hellos = 1
**.ratelimit = 1000
**.llfeedback = false# //1000 
**.wait_on_reboot = 0
**.active_timeout = 6000 # // time in ms
**.internet_gw_address = "0.0.0.0"

#  //  parameters: DSRUU;
**.PrintDebug = true
**.FlushLinkCache = true
**.PromiscOperation = false
**.UseNetworkLayerAck = false
**.BroadCastJitter = 20 # 20  ms
**.RouteCacheTimeout = 300 #300 seconds
**.SendBufferTimeout = 300# //30 s
**.SendBufferSize = -1
**.RequestTableSize = -1
**.RequestTableIds = -1
**.MaxRequestRexmt = -1 #// 16,
**.MaxRequestPeriod = 10 #//10 SECONDS
**.RequestPeriod = 500 #//500  MILLISECONDS
**.NonpropRequestTimeout = 30# //30  MILLISECONDS
**.RexmtBufferSize = -1 #//MAINT_BUF_MAX_LEN
**.MaintHoldoffTime = 250# //250 MILLISECONDS
**.MaxMaintRexmt = 2 # //2
**.TryPassiveAcks = true #//1
**.PassiveAckTimeout = 100# //100 MILLISECONDS
**.GratReplyHoldOff = 1 #, //1 SECONDS
**.MAX_SALVAGE_COUNT = 15 # //15
**.LifoSize = 20
**.PathCache = true
**.ETX_Active=false
**.ETXHelloInterval = 1 #, // Second
**.ETXWindowNumHello = 10
**.ETXRetryBeforeFail=-1
**.RREPDestinationOnly = false
**.RREQMaxVisit =5 # // Max Number that a RREQ can be processes by a node

#// Olsr
**.Willingness=3
**.Hello_ival=2
**.Tc_ival=5
**.Mid_ival=5
**.use_mac =0 #1
**.Mpr_algorithm =  1
**.routing_algorithm =   1
**.Link_quality = 2
**.Fish_eye = false
**.Tc_redundancy =    3
**.Link_delay = true #//default false
**.C_alpha=0.2

#// DSDV
**.manetroutingprotocol.hellomsgperiod_DSDV = 1 # //Period of DSDV hello message generation [seconds] 
**.manetroutingprotocol.manetroutingprotocol.timetolive_routing_entry = 5 # // ;[seconds]
**.netmask = "255.255.0.0" # //
**.MaxVariance_DSDV = 1 
**.RNGseed_DSDV = 0

