[General]
sim-time-limit = 300s

# ip settings
**.ip.procDelay = 1us

# NIC configuration
**.eth[*].queue.typename = "EtherQosQueue"
**.eth[*].queue.dataQueue.typename = "DropTailQueue"
**.eth[*].queue.dataQueue.frameCapacity = 100

**.hasStatus = true

# OSPF configuration

# BGP settings
**.bgpConfig = xmldoc("config.xml")

description = "BGP example 2 loopback"
network = BGPTestLoopback2
fingerprint =  0ceb-5afc/tplx
**.scenarioManager.script = xml("<empty/>")

[Config LinkDown]
fingerprint =  7544-90f3/tplx
**.scenarioManager.script = xmldoc("scenario1.xml")

[Config LinkDownAndUp]
fingerprint =  7f3f-fc3b/tplx
**.scenarioManager.script = xmldoc("scenario2.xml")



