[General]
description = "BGP lifecycle operations"
network = BgpNetwork
sim-time-limit = 900s
output-scalar-file = results.sca
output-scalar-precision = 5

**.app[0].**.scalar-recording = true
**.bgp.**.scalar-recording = true
**.scalar-recording = false
**.vector-recording = false

# NIC configuration
**.eth[*].queue.packetCapacity = 100

#tcp settings
**.tcp.typename = "Tcp"
**.tcp.mss = 1024
**.tcp.advertisedWindow = 14336
**.tcp.tcpAlgorithmClass = "TcpReno"

# OSPF configuration
**.ospfConfig = xmldoc("OSPFConfig.xml")

# bgp settings
**.bgpConfig = xmldoc("BGPConfig.xml")
**.redistributeOspf = "O IA"

# Visualizer settings
*.visualizer.interfaceTableVisualizer.displayInterfaceTables = true

# UDPApp parameters
*.H*.numApps = 1
**.app[0].messageLength = 32 bytes
**.app[0].sendInterval = 10s
**.app[0].startTime = 80s
**.app[0].destPort = 5678

**.H1.app[0].typename = "UdpBasicApp"
**.H1.app[0].localPort = 1234
**.H1.app[0].destAddresses = "192.168.2.1"

**.H2.app[0].typename="UdpSink"
**.H2.app[0].localPort = 5678

# Lifecycle operations: allow BGP sessions to establish, stop router A
# gracefully, restart it, then crash it later in the run.
*.scenarioManager.script = xml( \
        "<script>\n" + \
        "<at t='120s'><shutdown module='A'/></at>\n" + \
        "<at t='300s'><startup module='A'/></at>\n" + \
        "<at t='600s'><crash module='A'/></at>\n" + \
        "</script>")
