include omnetpp.ini

[Run 1]
sim-time-limit = 100s
fingerprint = "e437-4990"