include omnetpp.ini

[Config ARPTest]
sim-time-limit = 100s
fingerprint = "e437-4990"
