[General]
network = arpTest
preload-ned-files = *.ned @../../../nedfiles.lst
ini-warnings = no

warnings = yes
snapshot-file = ARPTest.sna
output-vector-file = ARPTest.vec
sim-time-limit = 500s
cpu-time-limit= 600s
total-stack-kb = 2048 ; 2MByte, increase if necessary

[Cmdenv]
module-messages = yes
verbose-simulation = yes
display-update = 0.5s

[Tkenv]
default-run=1
use-mainwindow = yes
print-banners = yes
slowexec-delay = 300ms
update-freq-fast = 10
update-freq-express = 100
breakpoints-enabled = yes

[DisplayStrings]

[Parameters]

[Run 1]
# udp app (off)
**.numUdpApps=0
**.udpAppType="UDPApp"

# tcp apps
**.numTcpApps=1
**.client*.tcpAppType="TCPSessionApp"
**.client*.tcpApp[0].active=true
**.client*.tcpApp[0].address=""
**.client*.tcpApp[0].port=-1
**.client*.tcpApp[0].connectAddress="server"
**.client*.tcpApp[0].connectPort=1000
**.client*.tcpApp[0].tOpen=1.0
**.client*.tcpApp[0].tSend=1.1
**.client*.tcpApp[0].sendBytes=1e6  # 1Mb
**.client*.tcpApp[0].sendScript=""
**.client*.tcpApp[0].tClose=0

#**.server*.tcpAppType="TCPSinkApp"
**.server*.tcpAppType="TCPEchoApp"
**.server*.tcpApp[0].address=""
**.server*.tcpApp[0].port=1000
**.server*.tcpApp[0].echoFactor=2.0
**.server*.tcpApp[0].echoDelay=0

# ping app
**.pingApp.generationTime = 0

# tcp settings
**.tcp.sendQueueClass="TCPVirtualDataSendQueue"
**.tcp.receiveQueueClass="TCPVirtualDataRcvQueue"
**.tcp.tcpAlgorithmClass="TCPTahoeReno"

# ip settings
**.ip.procDelay=10us
**.routingFile=""
**.IPForward=false  # Router's is hardwired "true"

# hook names
**.qosBehaviorClass = "EnqueueWithoutQoS"

# ethernet interface configuration
**.eth[*].arp.retryTimeout = 1
**.eth[*].arp.retryCount = 3
**.eth[*].arp.cacheTimeout = 100
**.eth[*].encap.writeScalars = false
**.eth[*].mac.promiscuous = false
**.eth[*].mac.address = "auto"
**.eth[*].mac.txrate = 10e6
**.eth[*].mac.duplexEnabled = true
**.eth[*].mac.maxQueueSize = 1000
**.eth[*].mac.writeScalars = false

**.eth[0].proxyARP = true
**.eth[1].proxyARP = true
**.eth[2].proxyARP = true