[General]
network = arpTest
preload-ned-files = *.ned @../../../nedfiles.lst
ini-warnings = no
;perform-gc = false

warnings = yes
sim-time-limit = 500s
cpu-time-limit= 600s
total-stack-kb = 2048 ; 2MByte, increase if necessary

[Cmdenv]
express-mode = true

[Tkenv]
plugin-path=../../../Etc/plugins
default-run=1

[Run 1]
# udp app (off)
**.numUdpApps=0
**.udpAppType="UDPBasicApp"

# tcp apps
**.host*.numTcpApps=0
**.host*.tcpAppType="TCPSessionApp"

**.client.numTcpApps=1
**.client.tcpAppType="TCPSessionApp"
**.client.tcpApp[0].active=true
**.client.tcpApp[0].address=""
**.client.tcpApp[0].port=-1
**.client.tcpApp[0].connectAddress="server"
**.client.tcpApp[0].connectPort=1000
**.client.tcpApp[0].tOpen=1.0
**.client.tcpApp[0].tSend=1.1
**.client.tcpApp[0].sendBytes=1e6  # 1Mb
**.client.tcpApp[0].sendScript=""
**.client.tcpApp[0].tClose=0

#**.server.tcpAppType="TCPSinkApp"
**.server.numTcpApps=1
**.server.tcpAppType="TCPEchoApp"
**.server.tcpApp[0].address=""
**.server.tcpApp[0].port=1000
**.server.tcpApp[0].echoFactor=2.0
**.server.tcpApp[0].echoDelay=0

# ping app (off)
**.pingApp.destAddr=""
**.pingApp.srcAddr=""
**.pingApp.packetSize=56
**.pingApp.interval=1
**.pingApp.hopLimit=32
**.pingApp.count=0
**.pingApp.startTime=1
**.pingApp.stopTime=0
**.pingApp.printPing=true

# tcp settings
**.tcp.mss = 1024
**.tcp.advertisedWindow = 14336  # 14*mss
**.tcp.sendQueueClass="TCPVirtualDataSendQueue"
**.tcp.receiveQueueClass="TCPVirtualDataRcvQueue"
**.tcp.tcpAlgorithmClass="TCPReno"
**.tcp.recordStats=true

# ip settings
**.ip.procDelay=10us
**.routingFile=""
**.IPForward=false  # Router's is hardwired "true"

# hook names
**.qosBehaviorClass = "EnqueueWithoutQoS"
**.ip.*.procDelay = 0

# ARP configuration
**.arp.retryTimeout = 1
**.arp.retryCount = 3
**.arp.cacheTimeout = 100
**.networkLayer.proxyARP = true  # Host's is hardwired "false"

# Ethernet NIC configuration
**.eth[*].encap.writeScalars = false
**.eth[*].mac.promiscuous = false
**.eth[*].mac.address = "auto"
**.eth[*].mac.txrate = 10e6
**.eth[*].mac.duplexEnabled = true
**.eth[*].mac.writeScalars = false

# Queues
**.ppp[*].queueType = "DropTailQueue"
**.ppp[*].queue.frameCapacity = 10
**.eth[*].queueType = "DropTailQueue"
**.eth[*].queue.frameCapacity = 10

# nam trace
**.nam.logfile = "trace.nam"
**.nam.prolog = ""
**.namid = -1  # auto

# Ethernet switch
**.switch*.relayUnitType = "MACRelayUnitNP"
**.relayUnit.addressTableSize = 100
**.relayUnit.agingTime = 120s
**.relayUnit.bufferSize = 1048576  # 1Mb
**.relayUnit.highWatermark = 524288  # 512K
**.relayUnit.pauseUnits = 300  # pause for 300*512 bit (19200 byte) time
**.relayUnit.addressTableFile = ""
**.relayUnit.numCPUs = 2
**.relayUnit.processingTime = 2us
**.relayUnit.writeScalars = true

**.mac[*].writeScalars = true
**.mac[*].address = "auto"
**.mac[*].maxQueueSize = 50
**.mac[*].promiscuous = false
**.mac[*].txrate = 0   # autoconfig
**.mac[*].duplexEnabled = true


