[General]
network = VsgWirelessShowcase
sim-time-limit = 100s
description = "VSG 3D visualizer comprehensive checkpoint (wireless: signals, data links, routes, mobility)"

**.arp.typename = "GlobalArp"

# --- traffic: host1 -> host2 and host3 -> host2 (so links/medium/routes/statistics activate) ---
*.host1.numApps = 1
*.host1.app[0].typename = "UdpBasicApp"
*.host1.app[0].destAddresses = "host2"
*.host1.app[0].destPort = 1000
*.host1.app[0].messageLength = 1000byte
*.host1.app[0].sendInterval = 1s
*.host3.numApps = 1
*.host3.app[0].typename = "UdpBasicApp"
*.host3.app[0].destAddresses = "host2"
*.host3.app[0].destPort = 1000
*.host3.app[0].messageLength = 1000byte
*.host3.app[0].sendInterval = 1.3s
*.host2.numApps = 1
*.host2.app[0].typename = "UdpSink"
*.host2.app[0].localPort = 1000

# --- ad-hoc wlan (proven settings from the radiomediumactivity showcase) ---
*.host*.wlan[*].radio.transmitter.power = 10mW
*.host*.forwarding = true
*.host*.wlan[*].mgmt.typename = "Ieee80211MgmtAdhoc"
*.host*.wlan[*].agent.typename = ""

# --- host3 moves, to show VSG movement trails ---
*.host3.mobility.typename = "LinearMobility"
*.host3.mobility.speed = 15mps
*.host3.mobility.initialMovementHeading = 30deg
*.host3.mobility.constraintAreaMinX = 20m
*.host3.mobility.constraintAreaMinY = 20m
*.host3.mobility.constraintAreaMinZ = 0m
*.host3.mobility.constraintAreaMaxX = 380m
*.host3.mobility.constraintAreaMaxY = 380m
*.host3.mobility.constraintAreaMaxZ = 0m

# --- VSG 3D visualizer settings (the IntegratedVsgVisualizer submodules) ---
*.visualizer.sceneVisualizer.axisLength = 50m
*.visualizer.sceneVisualizer.sceneMinX = 0m
*.visualizer.sceneVisualizer.sceneMinY = 0m
*.visualizer.sceneVisualizer.sceneMaxX = 400m
*.visualizer.sceneVisualizer.sceneMaxY = 400m
*.visualizer.sceneVisualizer.sceneMinZ = 0m
*.visualizer.sceneVisualizer.sceneMaxZ = 0m

*.visualizer.mediumVisualizer.displaySignals = true
*.visualizer.mediumVisualizer.displaySignalDepartures = true
*.visualizer.mediumVisualizer.displaySignalArrivals = true
*.visualizer.mediumVisualizer.displayCommunicationRanges = true

*.visualizer.dataLinkVisualizer.displayLinks = true
*.visualizer.dataLinkVisualizer.fadeOutTime = 2s

*.visualizer.networkRouteVisualizer.displayRoutes = true

*.visualizer.mobilityVisualizer.displayMovementTrails = true
*.visualizer.mobilityVisualizer.animationSpeed = 1

*.visualizer.interfaceTableVisualizer.displayInterfaceTables = true
