[General]
network = AntennaDirectionalSelectivityExample
sim-time-limit = 1h

# mobility
*.host*.mobility.constraintAreaMinZ = 0m
*.host*.mobility.constraintAreaMinX = 0m
*.host*.mobility.constraintAreaMinY = 0m
*.host*.mobility.constraintAreaMaxX = 1000m
*.host*.mobility.constraintAreaMaxY = 1000m
*.host*.mobility.constraintAreaMaxZ = 0m

# ping app (host[0] pinged by others)
*.hostA.numApps = 1
*.hostA.app[0].typename = "PingApp"
*.hostA.app[0].destAddr = "hostB"
*.hostA.app[0].startTime = 0s

# antenna
*.host*.wlan[*].radio.antenna.typename = "DipoleAntenna"
*.host*.wlan[*].radio.antenna.length = 20cm

[Config Rotation]
*.hostA.mobility.typename = "StationaryMobility"
*.hostA.mobility.initFromDisplayString = false
*.hostA.mobility.initialX = 200m
*.hostA.mobility.initialY = 500m
*.hostA.mobility.initialZ = 0m
*.hostA.mobility.initialHeading = 0deg
*.hostA.mobility.initialElevation = 0deg
*.hostA.mobility.initialBank = 0deg

*.hostB.mobility.typename = "StationaryMobility"
*.hostB.mobility.initFromDisplayString = false
*.hostB.mobility.initialX = 800m
*.hostB.mobility.initialY = 500m
*.hostB.mobility.initialZ = 0m
*.hostB.mobility.initialHeading = 0deg
*.hostB.mobility.initialElevation = 0deg
*.hostB.mobility.initialBank = 0deg

[Config RotationX]
extends = Rotation
# TODO

[Config RotationY]
extends = Rotation
# TODO

[Config RotationZ]
extends = Rotation
# TODO

[Config Orbit]
*.hostA.mobility.typename = "StationaryMobility"
*.hostA.mobility.initFromDisplayString = false
*.hostA.mobility.initialX = 500m
*.hostA.mobility.initialY = 500m
*.hostA.mobility.initialZ = 0m

*.hostB.mobility.typename = "CircleMobility"
*.hostB.mobility.cx = 500m
*.hostB.mobility.cy = 500m
*.hostB.mobility.cz = 0m
*.hostB.mobility.r = 300m
*.hostB.mobility.startAngle = 0deg
*.hostB.mobility.speed = 0.52359877559mps

[Config OrbitX]
extends = Orbit
description = "Host A dipole points towards X axis, Host B dipole points towards Z axis, Host B orbits around Host A in XY plane starting from X axis towards Y axis"
*.hostA.mobility.initialHeading = 0deg
*.hostA.mobility.initialElevation = -90deg
*.hostA.mobility.initialBank = 0deg

[Config OrbitY]
extends = Orbit
description = "Host A dipole points towards Y axis, Host B dipole points towards Z axis, Host B orbits around Host A in XY plane starting from X axis towards Y axis"
*.hostA.mobility.initialHeading = 0deg
*.hostA.mobility.initialElevation = 0deg
*.hostA.mobility.initialBank = 90deg

[Config OrbitZ]
extends = Orbit
description = "Host A dipole points towards Z axis, Host B dipole points towards Z axis, Host B orbits around Host A in XY plane starting from X axis towards Y axis"
*.hostA.mobility.initialHeading = 0deg
*.hostA.mobility.initialElevation = 0deg
*.hostA.mobility.initialBank = 0deg
