[General]
network = BgpAndOspfv3
sim-time-limit = 100s

**.ipv6.configurator.networkConfiguratorModule = "configurator"

# IPv6-only routers (no IPv4 stack/configurator)
*.r*.hasIpv4 = false

# ---- OSPFv3 (IGP) configuration, per router; intra-AS interfaces only ----
**.rA1.ospf.ospfv3Splitter.ospfv3RoutingConfig = xmldoc("Ospfv3Config.xml", "Devices/Router[@id='rA1']/Routing6/OSPFv3")
**.rA1.ospf.ospfv3Splitter.ospfv3IntConfig     = xmldoc("Ospfv3Config.xml", "Devices/Router[@id='rA1']/Interfaces")
**.rA2.ospf.ospfv3Splitter.ospfv3RoutingConfig = xmldoc("Ospfv3Config.xml", "Devices/Router[@id='rA2']/Routing6/OSPFv3")
**.rA2.ospf.ospfv3Splitter.ospfv3IntConfig     = xmldoc("Ospfv3Config.xml", "Devices/Router[@id='rA2']/Interfaces")
**.rA3.ospf.ospfv3Splitter.ospfv3RoutingConfig = xmldoc("Ospfv3Config.xml", "Devices/Router[@id='rA3']/Routing6/OSPFv3")
**.rA3.ospf.ospfv3Splitter.ospfv3IntConfig     = xmldoc("Ospfv3Config.xml", "Devices/Router[@id='rA3']/Interfaces")
**.rB1.ospf.ospfv3Splitter.ospfv3RoutingConfig = xmldoc("Ospfv3Config.xml", "Devices/Router[@id='rB1']/Routing6/OSPFv3")
**.rB1.ospf.ospfv3Splitter.ospfv3IntConfig     = xmldoc("Ospfv3Config.xml", "Devices/Router[@id='rB1']/Interfaces")
**.rB2.ospf.ospfv3Splitter.ospfv3RoutingConfig = xmldoc("Ospfv3Config.xml", "Devices/Router[@id='rB2']/Routing6/OSPFv3")
**.rB2.ospf.ospfv3Splitter.ospfv3IntConfig     = xmldoc("Ospfv3Config.xml", "Devices/Router[@id='rB2']/Interfaces")
**.rB3.ospf.ospfv3Splitter.ospfv3RoutingConfig = xmldoc("Ospfv3Config.xml", "Devices/Router[@id='rB3']/Routing6/OSPFv3")
**.rB3.ospf.ospfv3Splitter.ospfv3IntConfig     = xmldoc("Ospfv3Config.xml", "Devices/Router[@id='rB3']/Interfaces")

# ---- BGP over IPv6 (MP-BGP) ----
*.r*.hasBgp = true
*.r*.bgp.addressFamily = "ipv6"
*.r*.bgp.routingTableModule = "^.ipv6.routingTable"
*.r*.bgp.bgpConfig = xmldoc("BgpConfig6.xml")
# ospf here is OSPFv3 (not ospfv2::Ospfv2), and there is no redistribution, so
# BGP must not try to bind to it
*.r*.bgp.ospfRoutingModule = ""
*.rA1.bgp.routerId = "1.1.1.1"
*.rA2.bgp.routerId = "1.1.1.2"
*.rA3.bgp.routerId = "1.1.1.3"
*.rB1.bgp.routerId = "2.2.2.1"
*.rB2.bgp.routerId = "2.2.2.2"
*.rB3.bgp.routerId = "2.2.2.3"
# border routers advertise themselves as next hop into their AS, so the internal
# routers resolve the BGP next hop via OSPFv3
*.rA3.bgp.nextHopSelf = true
*.rB1.bgp.nextHopSelf = true

# end-to-end check: hostA pings hostB. This only succeeds once OSPFv3 has
# converged (intra-AS reachability + next-hop resolution) AND BGP has exchanged
# the inter-AS prefixes.
*.hostA.numApps = 1
*.hostA.app[0].typename = "PingApp"
*.hostA.app[0].destAddr = "2001:db8:2:3::100"   # hostB (inter-AS, via BGP)
# OSPFv3 converges and the (deferred) iBGP sessions come up around t=51s, then BGP
# exchanges the inter-AS prefixes; start pinging after that
*.hostA.app[0].startTime = 70s
*.hostA.app[0].sendInterval = 1s

# -----------------------------------------------------------------------------
# OSPFv3 only (no BGP): verifies that OSPFv3 provides multi-hop intra-AS IPv6
# reachability. hostA pings rA3's far (rA2-facing) address, which rA1 can only
# reach via the OSPFv3 route through rA2.
# -----------------------------------------------------------------------------
[Config OspfOnly]
description = "OSPFv3 IGP only, no BGP - intra-AS IPv6 routing"
*.r*.hasBgp = false
*.hostA.app[0].destAddr = "2001:db8:1:23::3"   # rA3 (intra-AS, via OSPFv3)
*.hostA.app[0].startTime = 55s   # after OSPFv3 has converged
