[General]
network = ber

warnings = true
sim-time-limit = 60.0s

cmdenv-event-banners = true   # for normal (non-express) mode only

tkenv-plugin-path = ../../../etc/plugins

#
# Network specific settings
#

# set inet_addr, Mask, MTU ( = 1500), default route
#**.client.routingTable.routingFile = "client.mrt"
#**.server.routingTable.routingFile = "server.mrt"

# ip settings
**.ip.procDelay = 0s
**.forwarding = false

# hookType settings
**.server.ppp[*].numOutputHooks = 1
**.server.ppp[*].outputHook[0].typename = "ThruputMeter" # Nop | ThruputMeter | OrdinalBasedDropper | OrdinalBasedDuplicator | Delayer | ...

# ARP settings
**.arp.retryTimeout = 1s
**.arp.retryCount = 3
**.arp.cacheTimeout = 100s

# NIC settings
**.ppp[*].queueType = "DropTailQueue"
**.ppp[*].queue.frameCapacity = 100    # packets

# thruput measurement settings
**.startTime = 0s     # start time
**.batchSize = 50     # number of packets in a batch
**.maxInterval = 1s   # max length of measurement interval (measurement ends
                      # if either batchsize or maxinterval is reached, whichever
                      # is reached first)

# tcp apps - client
**.client.numTcpApps = 1
**.client.tcpApp[*].typename = "TCPSessionApp"  # FTP
**.client.tcpApp[*].sendBytes = 100MiB
**.client.tcpApp[*].active = true
#**.client.tcpApp[*].localAddress = "client"
**.client.tcpApp[*].localPort = 10020
**.client.tcpApp[*].connectAddress = "server"
**.client.tcpApp[*].connectPort = 10021
**.client.tcpApp[*].tOpen = 0s
**.client.tcpApp[*].tSend = 0s
**.client.tcpApp[*].tClose = 0s
**.client.tcpApp[*].sendScript = ""

# tcp apps - server
**.server.numTcpApps = 1
**.server.tcpApp[*].typename = "TCPSinkApp"
#**.server.tcpApp[*].localAddress = "server"
**.server.tcpApp[*].localPort = 10021

# tcp settings
**.tcp.advertisedWindow = 65535                      # in bytes, corresponds with the maximal receiver buffer capacity (Note: normally, NIC queues should be at least this size)
**.tcp.delayedAcksEnabled = false                    # delayed ACK algorithm (RFC 1122) enabled/disabled
**.tcp.nagleEnabled = true                           # Nagle's algorithm (RFC 896) enabled/disabled
**.tcp.limitedTransmitEnabled = false                # Limited Transmit algorithm (RFC 3042) enabled/disabled (can be used for TCPReno/TCPTahoe/TCPNewReno/TCPNoCongestionControl)
**.tcp.increasedIWEnabled = false                    # Increased Initial Window (RFC 3390) enabled/disabled
**.tcp.sackSupport = false                           # Selective Acknowledgment (RFC 2018, 2883, 3517) support (header option) (SACK will be enabled for a connection if both endpoints support it)
**.tcp.windowScalingSupport = false                  # Window Scale (RFC 1323) support (header option) (WS will be enabled for a connection if both endpoints support it)
**.tcp.timestampSupport = false                      # Timestamps (RFC 1323) support (header option) (TS will be enabled for a connection if both endpoints support it)
**.tcp.mss = 1452                                    # Maximum Segment Size (RFC 793) (header option)
**.tcp.tcpAlgorithmClass = "TCPReno"                 # TCPReno/TCPTahoe/TCPNewReno/TCPNoCongestionControl/DumbTCP
**.tcp.recordStats = true                            # recording of seqNum etc. into output vectors enabled/disabled

# RNG/seed settings
repeat=3
seed-set=${runnumber}
# BER (bit error rate)
**.n = ${ber=0, 1e-7, 2e-7, 4e-7, 6e-7, 8e-7, 1e-6, 2e-6, 4e-6, 6e-6, 8e-6}

#
# Config specific settings
#

[Config ber-sack-experiment]
description = "ber-sack-experiment"
**.tcp.sackSupport = ${sack=true, false}

[Config ber-flavour-experiment]
description = "ber-flavour-experiment"
**.tcp.tcpAlgorithmClass = ${flavour = "TCPReno", "TCPNewReno" }
