[General]
network = VsgLidarShowcase
sim-time-limit = 100s
description = "Drone swarm over a real LIDAR landscape: PLY point-cloud terrain as the VSG ground, volumetric shader signal spheres, range indicators off"

**.arp.typename = "GlobalArp"

# --- traffic: drones 2-5 report to the leader (drone1), and the leader relays to drone2, so all five
#     radios transmit and several colour-coded signal spheres pulse over the landscape ---
*.drone1.numApps = 2
*.drone1.app[0].typename = "UdpSink"
*.drone1.app[0].localPort = 1000
*.drone1.app[1].typename = "UdpBasicApp"
*.drone1.app[1].destAddresses = "drone2"
*.drone1.app[1].destPort = 2000
*.drone1.app[1].messageLength = 2500byte
*.drone1.app[1].sendInterval = 1.8s
*.drone1.app[1].startTime = uniform(0s, 1s)

*.drone2.numApps = 2
*.drone2.app[0].typename = "UdpSink"
*.drone2.app[0].localPort = 2000
*.drone2.app[1].typename = "UdpBasicApp"
*.drone2.app[1].destAddresses = "drone1"
*.drone2.app[1].destPort = 1000
*.drone2.app[1].messageLength = 2500byte
*.drone2.app[1].sendInterval = 2s
*.drone2.app[1].startTime = uniform(0s, 1s)

*.drone3.numApps = 1
*.drone3.app[0].typename = "UdpBasicApp"
*.drone3.app[0].destAddresses = "drone1"
*.drone3.app[0].destPort = 1000
*.drone3.app[0].messageLength = 2500byte
*.drone3.app[0].sendInterval = 2.3s
*.drone3.app[0].startTime = uniform(0s, 1s)

*.drone4.numApps = 1
*.drone4.app[0].typename = "UdpBasicApp"
*.drone4.app[0].destAddresses = "drone1"
*.drone4.app[0].destPort = 1000
*.drone4.app[0].messageLength = 2500byte
*.drone4.app[0].sendInterval = 2.6s
*.drone4.app[0].startTime = uniform(0s, 1s)

*.drone5.numApps = 1
*.drone5.app[0].typename = "UdpBasicApp"
*.drone5.app[0].destAddresses = "drone1"
*.drone5.app[0].destPort = 1000
*.drone5.app[0].messageLength = 2500byte
*.drone5.app[0].sendInterval = 2.9s
*.drone5.app[0].startTime = uniform(0s, 1s)

# --- ad-hoc wlan: enough power (10mW) to reach across the ~400m air gaps of the swarm; the sphere size
#     is set by the fade below, not by this power ---
*.drone*.wlan[*].radio.transmitter.power = 10mW
*.drone*.wlan[*].bitrate = 54Mbps
*.drone*.wlan[*].mgmt.typename = "Ieee80211MgmtAdhoc"
*.drone*.wlan[*].agent.typename = ""
*.radioMedium.maxCommunicationRange = 500m
*.radioMedium.maxInterferenceRange = 500m

# --- the five drones fly through the airspace above the terrain (altitude ~280-360m, above the ~256m
#     tall buildings in the scan); non-zero movement elevation makes them climb and descend ---
*.drone*.mobility.typename = "LinearMobility"
*.drone*.mobility.speed = 10mps
*.drone*.mobility.constraintAreaMinX = 100m
*.drone*.mobility.constraintAreaMinY = 80m
*.drone*.mobility.constraintAreaMinZ = 280m
*.drone*.mobility.constraintAreaMaxX = 700m
*.drone*.mobility.constraintAreaMaxY = 370m
*.drone*.mobility.constraintAreaMaxZ = 360m
*.drone1.mobility.initialX = 400m
*.drone1.mobility.initialY = 225m
*.drone1.mobility.initialZ = 320m
*.drone1.mobility.initialMovementHeading = 20deg
*.drone1.mobility.initialMovementElevation = 10deg
*.drone2.mobility.initialX = 150m
*.drone2.mobility.initialY = 120m
*.drone2.mobility.initialZ = 290m
*.drone2.mobility.initialMovementHeading = 60deg
*.drone2.mobility.initialMovementElevation = 15deg
*.drone3.mobility.initialX = 650m
*.drone3.mobility.initialY = 120m
*.drone3.mobility.initialZ = 340m
*.drone3.mobility.initialMovementHeading = 150deg
*.drone3.mobility.initialMovementElevation = -15deg
*.drone4.mobility.initialX = 650m
*.drone4.mobility.initialY = 330m
*.drone4.mobility.initialZ = 300m
*.drone4.mobility.initialMovementHeading = 220deg
*.drone4.mobility.initialMovementElevation = 20deg
*.drone5.mobility.initialX = 150m
*.drone5.mobility.initialY = 330m
*.drone5.mobility.initialZ = 310m
*.drone5.mobility.initialMovementHeading = 315deg
*.drone5.mobility.initialMovementElevation = -20deg

# --- scene: match the ~800x450m LIDAR footprint so the terrain fits ~1:1; tall Z for the buildings + drones ---
*.visualizer.sceneVisualizer.axisLength = 80m
*.visualizer.sceneVisualizer.sceneMinX = 0m
*.visualizer.sceneVisualizer.sceneMinY = 0m
*.visualizer.sceneVisualizer.sceneMaxX = 800m
*.visualizer.sceneVisualizer.sceneMaxY = 450m
*.visualizer.sceneVisualizer.sceneMinZ = 0m
*.visualizer.sceneVisualizer.sceneMaxZ = 400m
# THE point of this example: use a LIDAR PLY point cloud as the ground instead of the flat quad.
*.visualizer.sceneVisualizer.sceneModel = "terrain.ply"

# --- medium visualizer: volumetric shader signal spheres, range indicators OFF (uncluttered) ---
*.visualizer.mediumVisualizer.displaySignals = true
*.visualizer.mediumVisualizer.signalShape = "sphere"
*.visualizer.mediumVisualizer.signalWaveShader = true
*.visualizer.mediumVisualizer.rangeSphere = false
*.visualizer.mediumVisualizer.displayCommunicationRanges = false
*.visualizer.mediumVisualizer.displayInterferenceRanges = false
*.visualizer.mediumVisualizer.signalFadingDistance = 25m
*.visualizer.mediumVisualizer.signalWaveLength = 35m
*.visualizer.mediumVisualizer.signalPropagationAnimationSpeed = 500/3e8
*.visualizer.mediumVisualizer.signalTransmissionAnimationSpeed = 50000/3e8

*.visualizer.dataLinkVisualizer.displayLinks = true
*.visualizer.dataLinkVisualizer.fadeOutTime = 2s

*.visualizer.mobilityVisualizer.displayMovementTrails = true
*.visualizer.mobilityVisualizer.animationSpeed = 1
