[General]
network = VsgLidarShowcase
sim-time-limit = 100s
description = "Drone swarm over a real LIDAR landscape: PLY point-cloud terrain as the VSG ground, volumetric shader signal spheres, range indicators off"

**.arp.typename = "GlobalArp"

# --- traffic: drones 2-5 report to the leader (drone1), and the leader relays to drone2, so all five
#     radios transmit and several colour-coded signal spheres pulse over the landscape ---
*.drone1.numApps = 2
*.drone1.app[0].typename = "UdpSink"
*.drone1.app[0].localPort = 1000
*.drone1.app[1].typename = "UdpBasicApp"
*.drone1.app[1].destAddresses = "drone2"
*.drone1.app[1].destPort = 2000
*.drone1.app[1].messageLength = 2500byte
*.drone1.app[1].sendInterval = 1.8s
*.drone1.app[1].startTime = uniform(0s, 1s)

*.drone2.numApps = 2
*.drone2.app[0].typename = "UdpSink"
*.drone2.app[0].localPort = 2000
*.drone2.app[1].typename = "UdpBasicApp"
*.drone2.app[1].destAddresses = "drone1"
*.drone2.app[1].destPort = 1000
*.drone2.app[1].messageLength = 2500byte
*.drone2.app[1].sendInterval = 2s
*.drone2.app[1].startTime = uniform(0s, 1s)

*.drone3.numApps = 1
*.drone3.app[0].typename = "UdpBasicApp"
*.drone3.app[0].destAddresses = "drone1"
*.drone3.app[0].destPort = 1000
*.drone3.app[0].messageLength = 2500byte
*.drone3.app[0].sendInterval = 2.3s
*.drone3.app[0].startTime = uniform(0s, 1s)

*.drone4.numApps = 1
*.drone4.app[0].typename = "UdpBasicApp"
*.drone4.app[0].destAddresses = "drone1"
*.drone4.app[0].destPort = 1000
*.drone4.app[0].messageLength = 2500byte
*.drone4.app[0].sendInterval = 2.6s
*.drone4.app[0].startTime = uniform(0s, 1s)

*.drone5.numApps = 1
*.drone5.app[0].typename = "UdpBasicApp"
*.drone5.app[0].destAddresses = "drone1"
*.drone5.app[0].destPort = 1000
*.drone5.app[0].messageLength = 2500byte
*.drone5.app[0].sendInterval = 2.9s
*.drone5.app[0].startTime = uniform(0s, 1s)

# --- ad-hoc wlan: enough power (10mW) to reach across the ~400m air gaps of the swarm; the sphere size
#     is set by the fade below, not by this power ---
*.drone*.wlan[*].radio.transmitter.power = 10mW
*.drone*.wlan[*].bitrate = 54Mbps
*.drone*.wlan[*].mgmt.typename = "Ieee80211MgmtAdhoc"
*.drone*.wlan[*].agent.typename = ""
*.radioMedium.maxCommunicationRange = 500m
*.radioMedium.maxInterferenceRange = 500m

# --- the five drones fly through the airspace above the terrain (altitude ~280-360m, above the ~256m
#     tall buildings in the scan); non-zero movement elevation makes them climb and descend ---
*.drone*.mobility.typename = "LinearMobility"
*.drone*.mobility.speed = 10mps
*.drone*.mobility.constraintAreaMinX = 100m
*.drone*.mobility.constraintAreaMinY = 80m
*.drone*.mobility.constraintAreaMinZ = 280m
*.drone*.mobility.constraintAreaMaxX = 700m
*.drone*.mobility.constraintAreaMaxY = 370m
*.drone*.mobility.constraintAreaMaxZ = 360m
*.drone1.mobility.initialX = 400m
*.drone1.mobility.initialY = 225m
*.drone1.mobility.initialZ = 320m
*.drone1.mobility.initialMovementHeading = 20deg
*.drone1.mobility.initialMovementElevation = 10deg
*.drone2.mobility.initialX = 150m
*.drone2.mobility.initialY = 120m
*.drone2.mobility.initialZ = 290m
*.drone2.mobility.initialMovementHeading = 60deg
*.drone2.mobility.initialMovementElevation = 15deg
*.drone3.mobility.initialX = 650m
*.drone3.mobility.initialY = 120m
*.drone3.mobility.initialZ = 340m
*.drone3.mobility.initialMovementHeading = 150deg
*.drone3.mobility.initialMovementElevation = -15deg
*.drone4.mobility.initialX = 650m
*.drone4.mobility.initialY = 330m
*.drone4.mobility.initialZ = 300m
*.drone4.mobility.initialMovementHeading = 220deg
*.drone4.mobility.initialMovementElevation = 20deg
*.drone5.mobility.initialX = 150m
*.drone5.mobility.initialY = 330m
*.drone5.mobility.initialZ = 310m
*.drone5.mobility.initialMovementHeading = 315deg
*.drone5.mobility.initialMovementElevation = -20deg

# --- scene: match the ~800x450m LIDAR footprint so the terrain fits ~1:1; tall Z for the buildings + drones ---
*.visualizer.sceneVisualizer.axisLength = 80m
*.visualizer.sceneVisualizer.sceneMinX = 0m
*.visualizer.sceneVisualizer.sceneMinY = 0m
*.visualizer.sceneVisualizer.sceneMaxX = 800m
*.visualizer.sceneVisualizer.sceneMaxY = 450m
*.visualizer.sceneVisualizer.sceneMinZ = 0m
*.visualizer.sceneVisualizer.sceneMaxZ = 400m
# THE point of this example: use a LIDAR PLY point cloud as the ground instead of the flat quad.
*.visualizer.sceneVisualizer.sceneModel = "terrain.ply"

# --- medium visualizer: volumetric shader signal spheres, range indicators OFF (uncluttered) ---
*.visualizer.mediumVisualizer.displaySignals = true
*.visualizer.mediumVisualizer.signalShape = "sphere"
*.visualizer.mediumVisualizer.signalWaveShader = true
*.visualizer.mediumVisualizer.rangeSphere = false
*.visualizer.mediumVisualizer.displayCommunicationRanges = false
*.visualizer.mediumVisualizer.displayInterferenceRanges = false
*.visualizer.mediumVisualizer.signalFadingDistance = 25m
*.visualizer.mediumVisualizer.signalWaveLength = 35m
*.visualizer.mediumVisualizer.signalPropagationAnimationSpeed = 500/3e8
*.visualizer.mediumVisualizer.signalTransmissionAnimationSpeed = 50000/3e8

*.visualizer.dataLinkVisualizer.displayLinks = true
*.visualizer.dataLinkVisualizer.fadeOutTime = 2s

*.visualizer.mobilityVisualizer.displayMovementTrails = true
*.visualizer.mobilityVisualizer.animationSpeed = 1

# --------------------------------------------------------------------------------------------
# The LIDAR terrain as PHYSICS, not just scenery: the same terrain.ply is loaded a second time
# by physicalEnvironment.ground (PointCloudGround), and the two-ray ground-reflection path-loss
# model then uses the real surface elevation under each drone instead of a flat ground.
# transformMode "fit" reproduces the scene visualizer's display transform (recenter + aspect-fit
# into the scene bounds), so the physical terrain is exactly the surface you SEE the drones fly
# over; for physically exact studies use the default "metric" mode (1 PLY meter = 1 sim meter).
# --------------------------------------------------------------------------------------------
[Config TerrainTwoRay]
network = VsgLidarTerrainShowcase
description = "Two-ray ground reflection over the real LIDAR surface (PointCloudGround)"
# Pin the physical environment's space to the scene box. Without this the scene visualizer
# derives its bounds from physicalEnvironment.getSpaceMin/Max (NaN by default with no objects)
# instead of the 800x450 background, which shifts the displayed terrain away from both the
# node positions and the physics heightfield.
*.physicalEnvironment.spaceMinX = 0m
*.physicalEnvironment.spaceMinY = 0m
*.physicalEnvironment.spaceMinZ = 0m
*.physicalEnvironment.spaceMaxX = 800m
*.physicalEnvironment.spaceMaxY = 450m
*.physicalEnvironment.spaceMaxZ = 400m
*.physicalEnvironment.ground.typename = "PointCloudGround"
*.physicalEnvironment.ground.file = "terrain.ply"
*.physicalEnvironment.ground.transformMode = "fit"
*.physicalEnvironment.ground.fitMinX = 0m
*.physicalEnvironment.ground.fitMinY = 0m
*.physicalEnvironment.ground.fitMinZ = 0m
*.physicalEnvironment.ground.fitMaxX = 800m
*.physicalEnvironment.ground.fitMaxY = 450m
*.radioMedium.pathLoss.typename = "TwoRayGroundReflection"

# Unlike [General] (drones above the tower, permanent line of sight everywhere), fly the swarm
# AMONG the buildings so the terrain matters: the altitude above the local surface — and with it
# the two-ray path loss — changes as drones cross streets, rooftops and the tower.
# The terrain heightfield spans x=[0,801] y=[5,445]; its highest structure (the tower, ~289m
# after despiking stray LIDAR returns) stands at (563,277) — see the PointCloudGround init log.
# The swarm is kept inside that footprint, and drones 3-4 start on the FAR side of the tower
# from the gcs, so their reports pass right by it (the occlusion test case for later phases).
# NOTE: the tile's lowest point (mapped to z=0) is not street level — the streets across this
# scan sit at z ≈ 41-55m in scene coordinates. Altitudes below keep everything above ground.
*.drone*.mobility.constraintAreaMinX = 60m
*.drone*.mobility.constraintAreaMinY = 40m
*.drone*.mobility.constraintAreaMinZ = 70m
*.drone*.mobility.constraintAreaMaxX = 740m
*.drone*.mobility.constraintAreaMaxY = 410m
*.drone*.mobility.constraintAreaMaxZ = 240m
*.drone1.mobility.initialX = 300m
*.drone1.mobility.initialY = 150m
*.drone1.mobility.initialZ = 120m
*.drone2.mobility.initialX = 150m
*.drone2.mobility.initialY = 350m
*.drone2.mobility.initialZ = 90m
*.drone3.mobility.initialX = 680m
*.drone3.mobility.initialY = 240m
*.drone3.mobility.initialZ = 80m
*.drone4.mobility.initialX = 640m
*.drone4.mobility.initialY = 180m
*.drone4.mobility.initialZ = 100m
*.drone5.mobility.initialX = 400m
*.drone5.mobility.initialY = 80m
*.drone5.mobility.initialZ = 160m

# --- ground control station at the foot of the tower: a UDP ECHO server. Every drone pings it
#     twice a second and the echo comes straight back, so each live drone<->gcs connection keeps
#     refreshing a data-link arrow in BOTH directions; when terrain occludes a drone, its packets
#     stop getting through and the arrow pair fades out within ~1.5s — connectivity at a glance ---
*.gcs.mobility.initFromDisplayString = false
*.gcs.mobility.initialX = 520m
*.gcs.mobility.initialY = 360m
*.gcs.mobility.initialZ = 55m # open street south of the tower (~41m grade) + 14m antenna mast, clear of the ~50m low roofs
*.gcs.numApps = 1
*.gcs.app[0].typename = "UdpEchoApp"
*.gcs.app[0].localPort = 1000
*.gcs.wlan[*].radio.transmitter.power = 10mW
*.gcs.wlan[*].bitrate = 54Mbps
*.gcs.wlan[*].mgmt.typename = "Ieee80211MgmtAdhoc"
*.gcs.wlan[*].agent.typename = ""
# drones talk ONLY to the gcs: frequent small pings instead of the [General] swarm chatter
*.drone1.app[1].destAddresses = "gcs"
*.drone1.app[1].destPort = 1000
*.drone2.app[1].destAddresses = "gcs"
*.drone3.app[0].destAddresses = "gcs"
*.drone4.app[0].destAddresses = "gcs"
*.drone5.app[0].destAddresses = "gcs"
*.drone1.app[1].messageLength = 500byte
*.drone2.app[1].messageLength = 500byte
*.drone{3..5}.app[0].messageLength = 500byte
*.drone1.app[1].sendInterval = 0.5s
*.drone2.app[1].sendInterval = 0.5s
*.drone{3..5}.app[0].sendInterval = 0.5s
# persistent-looking arrows: refreshed every ping, gone ~1.5s (sim time) after line of sight is lost
*.visualizer.dataLinkVisualizer.fadeOutMode = "simulationTime"
*.visualizer.dataLinkVisualizer.fadeOutTime = 1.5s

# --------------------------------------------------------------------------------------------
# Terrain OCCLUSION on top of the two-ray setup: the same heightfield now also blocks any link
# whose direct ray passes through the terrain — a drone dropping behind the tower (or below
# roof level across town) loses its link to the gcs outright, and the data-link lines vanish.
# Binary line-of-sight mode of TerrainObstacleLoss; see TerrainFresnel for the graded model.
# The tracing obstacle loss visualizer marks the exact terrain point that blocks each link.
# --------------------------------------------------------------------------------------------
[Config TerrainOcclusion]
extends = TerrainTwoRay
description = "LIDAR terrain blocks non-line-of-sight links (TerrainObstacleLoss over PointCloudGround)"
*.radioMedium.obstacleLoss.typename = "TerrainObstacleLoss"
# "ray" markers: red chords along the signal path where it passes through buildings
*.radioMedium.obstacleLoss.markerStyle = "ray"
*.visualizer.obstacleLossVisualizer.displayIntersections = true
*.visualizer.obstacleLossVisualizer.fadeOutMode = "simulationTime"
*.visualizer.obstacleLossVisualizer.fadeOutTime = 1.5s

# --------------------------------------------------------------------------------------------
# Graded terrain loss: instead of the binary cliff, the worst first-Fresnel-zone clearance on
# each link is mapped through the ITU-R P.526 single knife-edge curve — links weaken smoothly
# (~6 dB with terrain right at the ray) as a drone sinks behind a building, then fade out in
# the deepening shadow instead of dying at an invisible boundary. Frequency-dependent.
# --------------------------------------------------------------------------------------------
[Config TerrainFresnel]
extends = TerrainTwoRay
description = "graded Fresnel/knife-edge terrain attenuation (TerrainObstacleLoss mode=fresnel)"
*.radioMedium.obstacleLoss.typename = "TerrainObstacleLoss"
*.radioMedium.obstacleLoss.mode = "fresnel"
# "depth" markers (the default): vertical gauges from the direct ray up to the blocking
# surface — their length shows how deeply each link is buried. Set to "ray" for chords
# along the signal path instead (see TerrainOcclusion).
*.radioMedium.obstacleLoss.markerStyle = "depth"
*.visualizer.obstacleLossVisualizer.displayIntersections = true
*.visualizer.obstacleLossVisualizer.fadeOutMode = "simulationTime"
*.visualizer.obstacleLossVisualizer.fadeOutTime = 1.5s

# --------------------------------------------------------------------------------------------
# Ground-mesh render: instead of the raw LIDAR point cloud, draw the physics ground module's
# own heightfield as a shaded, elevation-colored surface. What you see is exactly the surface
# the radio models sample (same rasterized DSM, same de-spiking) — the display and the physics
# can no longer disagree. Uses the same PointCloudGround the two-ray/occlusion configs rely on.
# --------------------------------------------------------------------------------------------
[Config TerrainMesh]
extends = TerrainTwoRay
description = "render the physics heightfield as a shaded ground surface (groundModel)"
*.visualizer.sceneVisualizer.groundModel = "physicalEnvironment.ground"

# --------------------------------------------------------------------------------------------
# Multi-edge diffraction: the Deygout construction sums the knife-edge loss over the dominant
# ridge on the path plus the secondary ridges on either side of it (up to maxDiffractionEdges).
# Behind a cluster of buildings this predicts a deeper, more realistic shadow than the single
# edge of "fresnel", while still fading rather than cutting off like "los".
# --------------------------------------------------------------------------------------------
[Config TerrainDiffraction]
extends = TerrainTwoRay
description = "multi-edge Deygout terrain diffraction (TerrainObstacleLoss mode=diffraction)"
*.radioMedium.obstacleLoss.typename = "TerrainObstacleLoss"
*.radioMedium.obstacleLoss.mode = "diffraction"
*.radioMedium.obstacleLoss.markerStyle = "depth"
*.visualizer.obstacleLossVisualizer.displayIntersections = true
*.visualizer.obstacleLossVisualizer.fadeOutMode = "simulationTime"
*.visualizer.obstacleLossVisualizer.fadeOutTime = 1.5s

# --------------------------------------------------------------------------------------------
# Phase-correct two-ray path loss over the real terrain: TwoRayInterference normally assumes
# flat ground at z=0 (its antenna "heights" would be ~340 m here, since the Sandy tile's
# streets sit at z≈41-55 m); pointing it at the physical environment makes it measure heights
# above the LIDAR ground model instead.
# --------------------------------------------------------------------------------------------
[Config TerrainTwoRayInterference]
extends = TerrainTwoRay
description = "TwoRayInterference with antenna heights above the LIDAR terrain"
*.radioMedium.pathLoss.typename = "TwoRayInterference"
*.radioMedium.pathLoss.physicalEnvironmentModule = "physicalEnvironment"
