[General]
network = RIPInfinityCountTest


sim-time-limit = 80s

*.numRipRouters = 3

