[General]
network = RIPInfinityCountTest

tkenv-plugin-path = ../../../etc/plugins

sim-time-limit = 80s

*.numRipRouters = 3

