[General]
#abstract-config = true (requires omnet 7)

# application parameters
*.client.numApps = 1
*.client.app[*].typename = "PingApp"
*.client.app[*].destAddr = "server"
*.client.app[*].printPing = true

[Config ShortcutMac]
sim-time-limit = 1000s
network = ShortcutMacExample
*.*.wlan[*].typename = "ShortcutInterface"
*.*.wlan[*].mac.bitrate = 1Mbps
*.*.wlan[*].mac.lengthOverhead = 41b
*.*.wlan[*].mac.durationOverhead = 10us
*.*.wlan[*].mac.propagationDelay = uniform(1ms, 10ms)
*.*.wlan[*].mac.packetLoss = 0.1

[Config ShortcutRadio]
sim-time-limit = 1000s
network = ShortcutRadioExample

# nic parameters
*.*.wlan[*].typename = "AckingWirelessInterface"
*.*.wlan[*].radio.typename = "ShortcutRadio"
*.*.wlan[*].bitrate = 1Mbps
*.*.wlan[*].mac.headerLength = 41B
*.*.wlan[*].radio.lengthOverhead = 41b
*.*.wlan[*].radio.durationOverhead = 10us
*.*.wlan[*].radio.propagationDelay = uniform(1ms, 10ms)
*.*.wlan[*].radio.packetLoss = 0.1
