#
# Copyright (C) 2012 Kyeong Soo (Joseph) Kim. All rights reserved.
#
# This ini file is for the study of channel-selecton deficit round-robin
# (CDRR) scheduling algorithms in hybrid TDM/WDM networks with tunable
# transceivers.
#
# Note that [General] section, i.e., configurations common to all
# architectures including those of traffic models, is provided by
# "CommonSettings.ini".
#
# References
#


### [General] section providing configurations common to all network architectures
include General.ini


[Config HybridPonBase]
########################################################################
### Architecture-Specific Settings
########################################################################
network = inet.examples.multichannel_scheduling.cdrr.Cdrr
result-dir = results

########################################################################
### NIC (of ONUs, OLT)
########################################################################
#**.mac[*].queueType = "DropTailQueue" # in Ethernet switches
#**.mac[*].queueType = "REDQueue" # in routers (for better fairness among sessions)
#**.mac[*].queue[*].frameCapacity = 1000 # in frames
#**.onu[*].mac[*].txQueueLimit = 20000 # in frames (default is 1000)
#**.olt.mac[*].txQueueLimit = 20000 # in frames (default is 1000)

#################################
# Hybird PON settings
#################################
#**.numTransmitters = 2  # number of OLT transmitters (tx)
#**.numReceivers = 1  # number of OLT receivers (rx)
#**.onuTimeout = ${ot=10}ms  # ONU timeout (ot) (default is 1 ms)

[Config test]
extends = HybridPonBase
sim-time-limit = 1min
warmup-period = 1s  # depends on 'startTime' of applications and video trace duration (~10 min. for Terminator 2)
repeat = 1
result-dir = results/test 
#*.N = ${N=30}  # number of ONUs
*.N = ${N=2}  # number of ONUs
*.n = 1	# number of hosts per ONU
**.numTransmitters = ${tx=2}  # number of OLT transmitters (tx)
### specific settings
**.host[0].cli.waitTime = exponential(1ms)
**.host[0].cli.respLength = 1000B	# payload size between 43 and 1497 (due to 3-octet LLC header)
#**.host[0].cli.respLength = intuniform(43, 1497)*1B	# payload size between 43 and 1497 (due to 3-octet LLC header)
### general settings
**.host[*].cli.waitTime = exponential(5ms)
**.host[*].cli.respLength = 500B	# payload size between 43 and 1497 (due to 3-octet LLC header)
#**.host[*].cli.respLength = intuniform(43, 1497)*1B	# payload size between 43 and 1497 (due to 3-octet LLC header)
**.quantum = ${qt=500, 1000, 1500}B

[Config test-large]
extends = HybridPonBase
sim-time-limit = 1h
warmup-period = 10min  # depends on 'startTime' of applications and video trace duration (~10 min. for Terminator 2)
repeat = 10
result-dir = results/test 
*.N = ${N=30}  # number of ONUs
*.n = 1	# number of hosts per ONU
**.numTransmitters = ${tx=2}  # number of OLT transmitters (tx)
### specific settings
**.host[0].cli.waitTime = exponential(1ms)
#**.host[0].cli.respLength = 1000B	# payload size between 43 and 1497 (due to 3-octet LLC header)
**.host[0].cli.respLength = intuniform(43, 1497)*1B	# payload size between 43 and 1497 (due to 3-octet LLC header)
### general settings
**.host[*].cli.waitTime = exponential(5ms)
#**.host[*].cli.respLength = 500B	# payload size between 43 and 1497 (due to 3-octet LLC header)
**.host[*].cli.respLength = intuniform(43, 1497)*1B	# payload size between 43 and 1497 (due to 3-octet LLC header)
**.quantum = ${qt=500..1000 step 10}B

[Config test-v2]
extends = HybridPonBase
sim-time-limit = 1min
warmup-period = 1s  # depends on 'startTime' of applications and video trace duration (~10 min. for Terminator 2)
repeat = 1
result-dir = results/test 
*.N = ${N=30}  # number of ONUs
*.n = 1	# number of hosts per ONU
**.numTransmitters = ${tx=2}  # number of OLT transmitters (tx)
### specific settings
**.host[0].cli.waitTime = exponential(1ms)
**.host[0].cli.respLength = 1000B	# payload size between 43 and 1497 (due to 3-octet LLC header)
#**.host[0].cli.respLength = intuniform(43, 1497)*1B	# payload size between 43 and 1497 (due to 3-octet LLC header)
### general settings
**.host[*].cli.waitTime = exponential(5ms)
**.host[*].cli.respLength = 500B	# payload size between 43 and 1497 (due to 3-octet LLC header)
#**.host[0].cli.respLength = intuniform(43, 1497)*1B	# payload size between 43 and 1497 (due to 3-octet LLC header)
**.quantum = ${qt=1518}B
*.olt.schType = "OltScheduler2MCDRRv2"

[Config test-v3]
extends = test-v2
*.olt.schType = "OltScheduler2MCDRRv3"

[Config N16_tx2_base]
extends = HybridPonBase
sim-time-limit = 10min
warmup-period = 1min	# depends on 'startTime' of applications and video trace duration (~10 min. for Terminator 2)
repeat = 1
result-dir = results/N16
*.N = ${N=16}	# number of ONUs
*.n = ${n=1}	# number of hosts per ONU
**.numTransmitters = ${tx=2}  # number of OLT transmitters (tx)
**.quantum = ${200..1000 step 200}B
*.olt.schType = "OltScheduler2MCDRR"

[Config N16_tx2_const]
# total rate of 2.375 Gb/s
extends = N16_tx2_base
### specific settings
**.host[0].cli.waitTime = exponential(16us)
**.host[0].cli.respLength = 967B	# payload size between 43 and 1497 (due to 3-octet LLC header); overhead of 33 octets
### general settings
**.host[*].cli.waitTime = exponential(64us)
**.host[*].cli.respLength = 967B	# payload size between 43 and 1497 (due to 3-octet LLC header); overhead of 33 octets

[Config N16_tx2_const2]
# total rate of 2.375 Gb/s
extends = N16_tx2_base
### specific settings
**.host[0].cli.waitTime = exponential(16us)
**.host[0].cli.respLength = 967B	# payload size between 43 and 1497 (due to 3-octet LLC header); overhead of 33 octets
### general settings
**.host[*].cli.waitTime = exponential(32us)
**.host[*].cli.respLength = 467B	# payload size between 43 and 1497 (due to 3-octet LLC header); overhead of 33 octets

[Config N16_tx2_const2_v2]
# total rate of 2.375 Gb/s
extends = N16_tx2_const2
**.quantum = 1518B
*.olt.schType = "OltScheduler2MCDRRv2"

[Config N16_tx2_const2_v3]
# total rate of 2.375 Gb/s
extends = N16_tx2_const2_v2
*.olt.schType = "OltScheduler2MCDRRv3"

[Config N16_tx2_random]
# total rate of 2.409 Gb/s
extends = N16_tx2_base
### specific settings
**.host[0].cli.waitTime = exponential(16us)
**.host[0].cli.respLength = intuniform(43, 1497)*1B	# payload size between 43 and 1497 (due to 3-octet LLC header); overhead of 33 octets
### general settings
**.host[*].cli.waitTime = exponential(48us)
**.host[*].cli.respLength = intuniform(43, 1497)*1B	# payload size between 43 and 1497 (due to 3-octet LLC header); overhead of 33 octets

[Config N16_tx2_random_v2]
# total rate of 2.409 Gb/s
extends = N16_tx2_random
**.quantum = 1518B
*.olt.schType = "OltScheduler2MCDRRv2"

[Config N16_tx2_random_v3]
# total rate of 2.409 Gb/s
extends = N16_tx2_random_v2
*.olt.schType = "OltScheduler2MCDRRv3"
