[General]
network = VsgSignal3dShowcase
sim-time-limit = 100s
description = "VSG signal propagation in 3D (translucent expanding spheres, a drone flying through the volume)"

**.arp.typename = "GlobalArp"

# --- traffic: host1 -> host2 (ground link) and host3 -> host2 (drone -> ground) ---
*.host1.numApps = 1
*.host1.app[0].typename = "UdpBasicApp"
*.host1.app[0].destAddresses = "host2"
*.host1.app[0].destPort = 1000
*.host1.app[0].messageLength = 1000byte
*.host1.app[0].sendInterval = 1s
*.host1.app[0].startTime = uniform(0s, 1s)   # randomized so transmissions don't coincide
*.host3.numApps = 1
*.host3.app[0].typename = "UdpBasicApp"
*.host3.app[0].destAddresses = "host2"
*.host3.app[0].destPort = 1000
*.host3.app[0].messageLength = 1000byte
*.host3.app[0].sendInterval = 1.3s
*.host2.numApps = 1
*.host2.app[0].typename = "UdpSink"
*.host2.app[0].localPort = 1000

# --- ad-hoc wlan ---
# Enough power (0.5mW) that frames decode across the ~80m node spacing, so the data-link visualizer
# draws connection arrows; the interference-range cap below keeps the transmission spheres a sensible
# size (the sphere is bounded by the interference range).
*.host*.wlan[*].radio.transmitter.power = 0.5mW
*.host*.forwarding = true
*.host*.wlan[*].mgmt.typename = "Ieee80211MgmtAdhoc"
*.host*.wlan[*].agent.typename = ""
*.radioMedium.maxCommunicationRange = 100m
*.radioMedium.maxInterferenceRange = 100m

# --- host3 is a drone: it flies THROUGH the volume above the two ground stations
#     (non-zero movement elevation + a 3D constraint box), so its transmission spheres
#     are centred up in the air. It stays mostly within range of host2. ---
*.host3.mobility.typename = "LinearMobility"
*.host3.mobility.speed = 8mps
*.host3.mobility.initialX = 150m
*.host3.mobility.initialY = 150m
*.host3.mobility.initialZ = 70m
*.host3.mobility.initialMovementHeading = 45deg
*.host3.mobility.initialMovementElevation = 20deg
*.host3.mobility.constraintAreaMinX = 90m
*.host3.mobility.constraintAreaMinY = 90m
*.host3.mobility.constraintAreaMinZ = 20m
*.host3.mobility.constraintAreaMaxX = 210m
*.host3.mobility.constraintAreaMaxY = 210m
*.host3.mobility.constraintAreaMaxZ = 120m

# --- VSG 3D visualizer settings ---
*.visualizer.sceneVisualizer.axisLength = 30m
*.visualizer.sceneVisualizer.sceneMinX = 0m
*.visualizer.sceneVisualizer.sceneMinY = 0m
*.visualizer.sceneVisualizer.sceneMaxX = 300m
*.visualizer.sceneVisualizer.sceneMaxY = 300m
*.visualizer.sceneVisualizer.sceneMinZ = 0m
*.visualizer.sceneVisualizer.sceneMaxZ = 150m

*.visualizer.mediumVisualizer.displaySignals = true
# Draw signals as translucent expanding spheres (3D wavefronts) rather than flat ground rings.
*.visualizer.mediumVisualizer.signalShape = "sphere"
*.visualizer.mediumVisualizer.displaySignalDepartures = true
*.visualizer.mediumVisualizer.displaySignalArrivals = true
*.visualizer.mediumVisualizer.displayCommunicationRanges = true
# 3D wireframe spheres for the range indicators (flat circles are meaningless for the flying drone).
*.visualizer.mediumVisualizer.rangeSphere = true
# Stretch each (light-speed, sub-microsecond) propagation over ~2s of animation so the
# spheres are watchable rather than a brief flash. Raise this to slow them further.
*.visualizer.mediumVisualizer.signalPropagationAnimationTime = 2s

*.visualizer.dataLinkVisualizer.displayLinks = true
*.visualizer.dataLinkVisualizer.fadeOutTime = 2s

*.visualizer.mobilityVisualizer.displayMovementTrails = true
*.visualizer.mobilityVisualizer.animationSpeed = 1
