[General]
sim-time-limit = 10s
simtime-resolution = fs
abstract = true

network = GptpMasterSlave

**.transmitter.typename = "StreamingTransmitter"
**.receiver.typename = "DestreamingReceiver"

**.eth[*].bitrate = 100Mbps

**.configurator.assignDisjunctSubnetAddresses = false
**.configurator.addStaticRoutes = false
**.configurator.addSubnetRoutes = true
**.configurator.addDefaultRoutes = true
**.configurator.optimizeRoutes = false
**.configurator.dumpAddresses = true
**.configurator.dumpRoutes = true

*.configurator.config = xml("<config> \
                                <interface hosts='gptpMaster' names='eth0' address='10.0.0.1'/> \
                                <interface hosts='gptpSlave' names='eth0' address='10.0.0.2'/> \
                             </config>")

**.oscillator.nominalTickLength = 10ns

*.gptpMaster.gptp.masterPorts = ["eth0"]
*.gptpSlave.gptp.slavePort = "eth0"

[Config _DriftMaster]
abstract = true
*.gptpMaster.clock.oscillator.driftRate = 100000ppm

[Config _DriftSlave]
abstract = true
*.gptpSlave.clock.oscillator.driftRate = -100000ppm

############################################################

[Config nosync1]
description = gptp off, master is precise, client is precise
*.gptpMaster.gptp.domainNumber = 1

[Config nosync2]
extends = nosync1, _DriftSlave
description = gptp off, master is precise, client is late

[Config nosync3]
extends = nosync1, _DriftMaster
description = gptp off, master is in a hurry, client is precise

[Config nosync4]
extends = nosync1, _DriftMaster, _DriftSlave
description = gptp off, master is in a hurry, client is late

############################################################

[Config sync1]
description = gptp on, master is precise, client is precise

[Config sync2]
extends = sync1, _DriftSlave
description = gptp on, master is precise, client is late

[Config sync3]
extends = sync1, _DriftMaster
description = gptp on, master is in a hurry, client is precise

[Config sync4]
extends = sync1, _DriftMaster, _DriftSlave
description = gptp on, master is in a hurry, client is late
