[General]
network = RingNetwork
sim-time-limit = 10s

*.eth[*].bitrate = 100Mbps
