[General]
sim-time-limit = 200s
network = v3_square_2_areas

**.Router1.ospf.ospfv3Splitter.ospfv3RoutingConfig = xmldoc("config.xml", "Devices/Router[@id='Router1']/Routing6/OSPFv3")
**.Router2.ospf.ospfv3Splitter.ospfv3RoutingConfig = xmldoc("config.xml", "Devices/Router[@id='Router2']/Routing6/OSPFv3")
**.Router3.ospf.ospfv3Splitter.ospfv3RoutingConfig = xmldoc("config.xml", "Devices/Router[@id='Router3']/Routing6/OSPFv3")
**.Router4.ospf.ospfv3Splitter.ospfv3RoutingConfig = xmldoc("config.xml", "Devices/Router[@id='Router4']/Routing6/OSPFv3")

**.Router1.ospf.ospfv3Splitter.ospfv3IntConfig = xmldoc("config.xml", "Devices/Router[@id='Router1']/Interfaces")
**.Router2.ospf.ospfv3Splitter.ospfv3IntConfig = xmldoc("config.xml", "Devices/Router[@id='Router2']/Interfaces")
**.Router3.ospf.ospfv3Splitter.ospfv3IntConfig = xmldoc("config.xml", "Devices/Router[@id='Router3']/Interfaces")
**.Router4.ospf.ospfv3Splitter.ospfv3IntConfig = xmldoc("config.xml", "Devices/Router[@id='Router4']/Interfaces")

**.Router1.configData = xmldoc("config.xml", "Devices/Router[@id='Router1']/")
**.Router2.configData = xmldoc("config.xml", "Devices/Router[@id='Router2']/")
**.Router3.configData = xmldoc("config.xml", "Devices/Router[@id='Router3']/")
**.Router4.configData = xmldoc("config.xml", "Devices/Router[@id='Router4']/")
