[General]
network = SubmoduleInformationVisualizationShowcase
#abstract-config = true (requires omnet 7)

# App settings (UDP traffic)
*.source.numApps = 1
*.source.app[0].typename = "UdpBasicApp"
*.source.app[*].destPort = 1000
*.source.app[*].messageLength = 1000Byte
*.source.app[*].sendInterval = 10ms
*.source.app[*].destAddresses = "destination"

*.destination.numApps = 1
*.destination.app[0].typename = "UdpSink"
*.destination.app[0].localPort = 1000

# Misc settings
**.dataFrameBitrate = 54Mbps
**.wlan[*].radio.transmitter.power = 1mW
*.configurator.config = xmldoc("configurator.xml")

[Config PacketCounts]
sim-time-limit = 5s
*.visualizer.*.infovisualizer.*.modules = "*.*.app[0]"
*.visualizer.*.infovisualizer.*.format = "%t"
*.visualizer.*.infovisualizer.*.placementHint = "topCenter"

[Config MACStates]
sim-time-limit = 5s
*.visualizer.*.infovisualizer.*.modules = "*.*.wlan[0].mac.tx OR *.*.wlan[0].mac.rx OR *.*.wlan[0].mac.dcf.channelAccess.contention "
*.visualizer.*.infovisualizer.*.format = "%n: %t"
*.visualizer.*.infovisualizer.*.placementHint = "topCenter"

*.visualizer.*.mediumvisualizer.*.displaySignals = true
*.visualizer.*.mediumvisualizer.*.displayCommunicationRanges = true
*.visualizer.*.mediumvisualizer.*.displayInterferenceRanges = true
