[General]
network = RateAnomalyShowcase
sim-time-limit = 5s
warmup-period = 1s   # discard the association transient; measure steady state over [1s, 5s]

# In a saturated BSS, contending stations' DCF backoff counters routinely reach zero on
# the same slot boundary -- that is a real CSMA/CA collision, not a misconfiguration, so
# the "same transmission start time" guard must be relaxed here.
*.radioMedium.sameTransmissionStartTimeCheck = "ignore"

# Resolve ARP globally so no ARP frames consume airtime (keeps the channel clean).
*.*.ipv4.arp.typename = "GlobalArp"

# Fixed station positions: a small cluster ~8-9 m from the access point, so every link
# is equally good. (Positions come from mobility, not the display string.)
*.sta[*].mobility.typename = "StationaryMobility"
*.sta[*].mobility.initFromDisplayString = false
*.sta[*].mobility.initialX = 9m
*.sta[*].mobility.initialY = 8m + parentIndex() * 2m
*.sta[*].mobility.initialZ = 0m
*.accessPoint.mobility.initialX = 17m
*.accessPoint.mobility.initialY = 12m
*.accessPoint.mobility.initialZ = 0m

# ---- 802.11g, FIXED per-station data rate (no rate control) ----
# Every station uses the same opMode; the only thing that differs is the configured
# data bitrate. The slow station is slow by configuration, not because of a weak link.
*.sta[*].wlan[*].opMode = "g(erp)"
*.accessPoint.wlan[*].opMode = "g(erp)"
*.sta[*].wlan[*].bitrate = 54Mbps
*.accessPoint.wlan[*].bitrate = 54Mbps

# Generous, equal transmit power so every link is error-free even at 54 Mbps at these
# short distances -- isolates the anomaly to airtime sharing, not to packet loss.
*.sta[*].wlan[*].radio.transmitter.power = 100mW
*.accessPoint.wlan[*].radio.transmitter.power = 100mW

# Small MAC queue + over-provisioned offered load => every station is always backlogged
# (the saturated-throughput regime in which the rate anomaly is defined).
*.sta[*].wlan[*].mac.dcf.channelAccess.pendingQueue.packetCapacity = 10

# ---- Saturating uplink UDP: one backlogged flow per station ----
*.sta[*].numApps = 1
*.sta[*].app[0].typename = "UdpBasicApp"
*.sta[*].app[0].destAddresses = "server"
*.sta[*].app[0].destPort = 5000 + parentIndex()   # distinct port per station -> per-station throughput
*.sta[*].app[0].messageLength = 1000B
*.sta[*].app[0].sendInterval = 0.25ms     # ~32 Mbps offered >> capacity -> saturated

# ---- One sink per station at the server (port 5000+i) ----
*.server.numApps = 5
*.server.app[*].typename = "UdpSink"
*.server.app[*].localPort = 5000 + index

[Config Homogeneous]
description = "All five stations transmit at 54 Mbps - the fair, high-throughput baseline"

[Config RateAnomaly]
description = "One station is slowed (bitrate swept 36..6 Mbps); the fast stations collapse with it"
*.sta[0].wlan[*].bitrate = ${slowBitrate=36,24,18,12,9,6}Mbps
