[General]
network = PimSmSsmIpv6
description = "IPv6 PIM-SM source-specific multicast (SSM): receiver includes one of two sources"
sim-time-limit = 60s

# All PIM interfaces run in sparse mode. No RP is configured: SSM groups
# (FF3x::/32) are served by (S,G) source trees built directly toward the source.
**.pimConfig = xml("<config><interface mode=\"sparse\"/></config>")

# MLDv2 on every node so the receiver can express a source-specific (INCLUDE)
# membership; the routers learn it and PIM-SM builds the (S,G) tree.
**.ipv6.hasMld = true
**.ipv6.mld.typename = "Mldv2"

# Fast deterministic startup: skip Duplicate Address Detection.
**.neighbourDiscovery.dupAddrDetectTransmits = 0

# -------- Two sources, both sending to the SSM group ff3e::8 --------
**.Source*.numApps = 1
**.Source*.app[0].typename = "UdpBasicApp"
**.Source*.app[0].destAddresses = "ff3e::8"
**.Source*.app[0].destPort = 5000
**.Source*.app[0].messageLength = 100B
**.Source*.app[0].timeToLive = 10
**.Source1.app[0].startTime = 20s
**.Source2.app[0].startTime = 21s
**.Source*.app[0].sendInterval = 1s
**.Source*.app[0].stopTime = 55s

# -------- Receiver: SSM INCLUDE membership for ff3e::8 from Source1 only --------
# The source must be Source1's *global* address (the Ipv6FlatNetworkConfigurator
# assigns the aaaa:*::/64 prefixes). It is hardcoded rather than resolved with
# "Source1(ipv6)" because the resolver returns the link-local address, whereas
# Source1 sources its global-scope ff3e:: traffic from its global address -- an
# INCLUDE filter naming the link-local would match nothing. (Discovered by a
# dry run; stable for this fixed topology.)
**.Receiver.numApps = 1
**.Receiver.app[0].typename = "UdpSink"
**.Receiver.app[0].localPort = 5000
**.Receiver.app[0].multicastGroup = "ff3e::8"
**.Receiver.app[0].multicastSources = "aaaa:2:65:0:8aa:ff:fe00:1"

# Ethernet queues (mirror the other PIM/MLD examples)
**.eth[*].queue.typename = "EthernetQosQueue"
**.eth[*].queue.dataQueue.typename = "DropTailQueue"
**.eth[*].queue.dataQueue.packetCapacity = 100
