[General]
network = VoipStreamReceiverApplication
#emulation = true
scheduler-class = "inet::RealTimeScheduler"
sim-time-limit = 1h

*.app.localPort = 1000
*.app.resultFile = "results/sound.wav"
