[General]
network = VoipStreamReceiverApplication
scheduler-class = "inet::RealTimeScheduler"
sim-time-limit = 1h
#emulation = true

*.app.localPort = 1000
*.app.resultFile = "results/sound.wav"
