include omnetpp.ini

[General]
sim-time-limit = 100s
fingerprint = "045b-3e0f"
