[General]
network = VsgSmokeTest
sim-time-limit = 1s
description = "VSG 3D smoke test — switch to the 3D view using the Qtenv toolbar"

# show the coordinate axes and give the scene a floor
*.sceneVisualizer.axisLength = 100m
*.sceneVisualizer.sceneMinX = 0m
*.sceneVisualizer.sceneMinY = 0m
*.sceneVisualizer.sceneMinZ = 0m
*.sceneVisualizer.sceneMaxX = 300m
*.sceneVisualizer.sceneMaxY = 300m
*.sceneVisualizer.sceneMaxZ = 0m
