[General]
network = PimDmIpv6
description = "IPv6 PIM-DM flood-and-prune"
sim-time-limit = 120s

# See README for a description of the scenario.

# All PIM interfaces run in dense mode.
**.pimConfig = xml("<config><interface mode=\"dense\"/></config>")

# MLD on every node (hosts become listeners; routers learn local membership).
**.ipv6.hasMld = true

# Skip Duplicate Address Detection for a fast, deterministic startup.
**.neighbourDiscovery.dupAddrDetectTransmits = 0

# Source1: behind R1, sends to the IPv6 group ff0e::1
**.Source1.numApps = 1
**.Source1.app[0].typename = "UdpBasicApp"
**.Source1.app[0].destAddresses = "ff0e::1"
**.Source1.app[0].destPort = 5000
**.Source1.app[0].messageLength = 100B
**.Source1.app[0].timeToLive = 10
**.Source1.app[0].startTime = 30s
**.Source1.app[0].sendInterval = 1s
**.Source1.app[0].stopTime = 115s

# Host2: receiver behind R2; joins ff0e::1 for the whole run
**.Host2.numApps = 1
**.Host2.app[0].typename = "UdpSink"
**.Host2.app[0].localPort = 5000
**.Host2.app[0].multicastGroup = "ff0e::1"

# Host3: late joiner behind R3 (joins at t=70s, triggering a Graft)
**.Host3.numApps = 1
**.Host3.app[0].typename = "UdpSink"
**.Host3.app[0].localPort = 5000
**.Host3.app[0].multicastGroup = "ff0e::1"
**.Host3.app[0].startTime = 70s

# Host1 never joins (its downstream interface stays pruned).

# Ethernet queue configuration (mirrors the MLD example settings)
**.eth[*].queue.typename = "EthernetQosQueue"
**.eth[*].queue.dataQueue.typename = "DropTailQueue"
**.eth[*].queue.dataQueue.packetCapacity = 100
