[General]
network = ARPTest
sim-time-limit = 500s
cpu-time-limit = 600s
total-stack = 2MiB
tkenv-plugin-path = ../../../etc/plugins
#record-eventlog = true
#debug-on-errors = true

[Config ARPTest]
# tcp apps
**.client.numTcpApps = 1
**.client.tcpApp[*].typename = "TCPSessionApp"
**.client.tcpApp[*].active = true
**.client.tcpApp[*].localAddress = ""
**.client.tcpApp[*].localPort = -1
**.client.tcpApp[*].connectAddress = "server"
**.client.tcpApp[*].connectPort = 1000
**.client.tcpApp[*].tOpen = 1.0s
**.client.tcpApp[*].tSend = 1.1s
**.client.tcpApp[*].sendBytes = 1MiB
**.client.tcpApp[*].sendScript = ""
**.client.tcpApp[*].tClose = 0

#**.server.tcpApp[*].typename="TCPSinkApp"
**.server.numTcpApps = 1
**.server.tcpApp[*].typename = "TCPEchoApp"
**.server.tcpApp[0].localAddress = ""
**.server.tcpApp[0].localPort = 1000
**.server.tcpApp[0].echoFactor = 2.0
**.server.tcpApp[0].echoDelay = 0

# Ethernet NIC configuration
**.eth[*].mac.duplexMode = true

# Queues
**.ppp[*].queueType = "DropTailQueue"
**.ppp[*].queue.frameCapacity = 10
**.eth[*].queueType = "DropTailQueue"
**.eth[*].queue.dataQueue.frameCapacity = 10

# Ethernet switch
**.switch*.relayUnitType = "MACRelayUnit"
**.relayUnit.addressTableSize = 100
**.relayUnit.agingTime = 120s
**.relayUnit.bufferSize = 1MiB
**.relayUnit.highWatermark = 512KiB
**.relayUnit.pauseUnits = 300  # pause for 300*512 bit (19200 byte) time
**.relayUnit.addressTableFile = ""
**.relayUnit.numCPUs = 2
**.relayUnit.processingTime = 2us

#**.mac[*].txrate = 0   # autoconfig
**.mac[*].duplexMode = true
