[General]
network = IsisFailure
sim-time-limit = 25s

# Shut r3 down at t=12s.
*.scenarioManager.script = xml("<scenario><at t='12s'><shutdown module='r3'/></at></scenario>")

# Configurator: addresses + direct + host default routes only; IS-IS does the rest.
*.configurator.addStaticRoutes = true
*.configurator.addDirectRoutes = true
*.configurator.addRemoteRoutes = false
*.configurator.addDefaultRoutes = false
*.configurator.addManualRoutes = true
*.configurator.config = xml("<config>\
    <interface hosts='h1' address='10.0.1.10' netmask='255.255.255.0'/>\
    <interface hosts='r1' names='eth0' address='10.0.1.1' netmask='255.255.255.0'/>\
    <interface hosts='r1' names='eth1' address='10.0.12.1' netmask='255.255.255.0'/>\
    <interface hosts='r2' names='eth0' address='10.0.12.2' netmask='255.255.255.0'/>\
    <interface hosts='r2' names='eth1' address='10.0.23.2' netmask='255.255.255.0'/>\
    <interface hosts='r3' names='eth0' address='10.0.23.3' netmask='255.255.255.0'/>\
    <interface hosts='r3' names='eth1' address='10.0.3.3' netmask='255.255.255.0'/>\
    <interface hosts='h3' address='10.0.3.10' netmask='255.255.255.0'/>\
    <route hosts='h1' destination='0.0.0.0' netmask='0.0.0.0' gateway='10.0.1.1'/>\
    <route hosts='h3' destination='0.0.0.0' netmask='0.0.0.0' gateway='10.0.3.3'/>\
    </config>")

# Short LSP timers so refresh and aging/purge are observable within the run.
*.r*.isis.lspRefreshInterval = 4s
*.r*.isis.lspMaxLifetime = 8s

*.r1.isis.configData = xml("<isis net='49.0001.1921.6800.0001.00' isType='L1'><interface name='eth1' helloInterval='1s'/></isis>")
*.r2.isis.configData = xml("<isis net='49.0001.1921.6800.0002.00' isType='L1'><interface name='eth0' helloInterval='1s'/><interface name='eth1' helloInterval='1s'/></isis>")
*.r3.isis.configData = xml("<isis net='49.0001.1921.6800.0003.00' isType='L1'><interface name='eth0' helloInterval='1s'/></isis>")

*.h1.numApps = 1
*.h1.app[0].typename = "PingApp"
*.h1.app[0].destAddr = "10.0.3.10"
*.h1.app[0].startTime = 3s
*.h1.app[0].sendInterval = 1s

**.cmdenv-log-level = info
cmdenv-express-mode = false
