[General]
network = VsgSignalWave3dShowcase
sim-time-limit = 100s
description = "VSG volumetric shader wavefront in 3D: a drone swarm, each transmission an expanding rippling glowing sphere in the air"

**.arp.typename = "GlobalArp"

# --- traffic: the four drones send telemetry to the ground control station, and the GCS sends
#     commands back to drone1, so all five radios transmit and several colour-coded spheres pulse ---
*.gcs.numApps = 2
*.gcs.app[0].typename = "UdpSink"
*.gcs.app[0].localPort = 1000
*.gcs.app[1].typename = "UdpBasicApp"
*.gcs.app[1].destAddresses = "drone1"
*.gcs.app[1].destPort = 2000
*.gcs.app[1].messageLength = 2500byte
*.gcs.app[1].sendInterval = 1.9s
*.gcs.app[1].startTime = uniform(0s, 1s)

*.drone1.numApps = 2
*.drone1.app[0].typename = "UdpSink"
*.drone1.app[0].localPort = 2000
*.drone1.app[1].typename = "UdpBasicApp"
*.drone1.app[1].destAddresses = "gcs"
*.drone1.app[1].destPort = 1000
*.drone1.app[1].messageLength = 2500byte
*.drone1.app[1].sendInterval = 2s
*.drone1.app[1].startTime = uniform(0s, 1s)

*.drone2.numApps = 1
*.drone2.app[0].typename = "UdpBasicApp"
*.drone2.app[0].destAddresses = "gcs"
*.drone2.app[0].destPort = 1000
*.drone2.app[0].messageLength = 2500byte
*.drone2.app[0].sendInterval = 2.2s
*.drone2.app[0].startTime = uniform(0s, 1s)

*.drone3.numApps = 1
*.drone3.app[0].typename = "UdpBasicApp"
*.drone3.app[0].destAddresses = "gcs"
*.drone3.app[0].destPort = 1000
*.drone3.app[0].messageLength = 2500byte
*.drone3.app[0].sendInterval = 2.4s
*.drone3.app[0].startTime = uniform(0s, 1s)

*.drone4.numApps = 1
*.drone4.app[0].typename = "UdpBasicApp"
*.drone4.app[0].destAddresses = "gcs"
*.drone4.app[0].destPort = 1000
*.drone4.app[0].messageLength = 2500byte
*.drone4.app[0].sendInterval = 2.6s
*.drone4.app[0].startTime = uniform(0s, 1s)

# --- ad-hoc wlan: enough power (1mW @ 54Mbps) to decode across the ~120m air gaps (so arrows draw);
#     the sphere size is set by the fade below, NOT by this power ---
*.*.wlan[*].radio.transmitter.power = 1mW
*.*.wlan[*].bitrate = 54Mbps
*.*.wlan[*].mgmt.typename = "Ieee80211MgmtAdhoc"
*.*.wlan[*].agent.typename = ""
*.radioMedium.maxCommunicationRange = 200m
*.radioMedium.maxInterferenceRange = 200m

# --- the four drones fly through a 3D box (non-zero movement elevation -> they climb and descend) ---
*.drone*.mobility.typename = "LinearMobility"
*.drone*.mobility.speed = 7mps
*.drone*.mobility.constraintAreaMinX = 40m
*.drone*.mobility.constraintAreaMinY = 40m
*.drone*.mobility.constraintAreaMinZ = 30m
*.drone*.mobility.constraintAreaMaxX = 260m
*.drone*.mobility.constraintAreaMaxY = 260m
*.drone*.mobility.constraintAreaMaxZ = 130m
*.drone1.mobility.initialX = 80m
*.drone1.mobility.initialY = 80m
*.drone1.mobility.initialZ = 60m
*.drone1.mobility.initialMovementHeading = 45deg
*.drone1.mobility.initialMovementElevation = 15deg
*.drone2.mobility.initialX = 220m
*.drone2.mobility.initialY = 80m
*.drone2.mobility.initialZ = 90m
*.drone2.mobility.initialMovementHeading = 135deg
*.drone2.mobility.initialMovementElevation = -20deg
*.drone3.mobility.initialX = 220m
*.drone3.mobility.initialY = 220m
*.drone3.mobility.initialZ = 50m
*.drone3.mobility.initialMovementHeading = 225deg
*.drone3.mobility.initialMovementElevation = 25deg
*.drone4.mobility.initialX = 80m
*.drone4.mobility.initialY = 220m
*.drone4.mobility.initialZ = 100m
*.drone4.mobility.initialMovementHeading = 315deg
*.drone4.mobility.initialMovementElevation = -15deg

# --- 3D scene box ---
*.visualizer.sceneVisualizer.axisLength = 40m
*.visualizer.sceneVisualizer.sceneMinX = 0m
*.visualizer.sceneVisualizer.sceneMinY = 0m
*.visualizer.sceneVisualizer.sceneMaxX = 300m
*.visualizer.sceneVisualizer.sceneMaxY = 300m
*.visualizer.sceneVisualizer.sceneMinZ = 0m
*.visualizer.sceneVisualizer.sceneMaxZ = 150m

# --- medium visualizer: the VOLUMETRIC shader sphere wavefront ---
*.visualizer.mediumVisualizer.displaySignals = true
*.visualizer.mediumVisualizer.signalShape = "sphere"
*.visualizer.mediumVisualizer.signalWaveShader = true
# Sphere size is governed by the fade (not power): signalFadingDistance=18m -> a ~175m sphere.
*.visualizer.mediumVisualizer.signalFadingDistance = 18m
*.visualizer.mediumVisualizer.signalWaveLength = 30m
*.visualizer.mediumVisualizer.displaySignalDepartures = true
*.visualizer.mediumVisualizer.displaySignalArrivals = true
*.visualizer.mediumVisualizer.displayCommunicationRanges = true
# Draw the range indicators as 3D wireframe spheres (a radio's range is a sphere; flat circles are
# meaningless once the drones leave the ground plane).
*.visualizer.mediumVisualizer.rangeSphere = true
# Proven animation speeds: wavefront travels 500 m/s (a ~175m sphere expands in ~0.35s) and the
# transmit window is slowed ~4 orders of magnitude so a sphere STAYS LIT ~2s while sending.
*.visualizer.mediumVisualizer.signalPropagationAnimationSpeed = 500/3e8
*.visualizer.mediumVisualizer.signalTransmissionAnimationSpeed = 50000/3e8

*.visualizer.dataLinkVisualizer.displayLinks = true
*.visualizer.dataLinkVisualizer.fadeOutTime = 2s

*.visualizer.mobilityVisualizer.displayMovementTrails = true
*.visualizer.mobilityVisualizer.animationSpeed = 1
