[General]
description = "IPv6 BGP diamond failover and failback with Adj-RIB-In fallback"
network = BgpDiamondFailover6
sim-time-limit = 160s

**.ipv6.configurator.networkConfiguratorModule = "configurator"

**.app[0].**.scalar-recording = true
*.hostA.app[0].**.vector-recording = true
**.bgp.**.scalar-recording = true
**.scalar-recording = false
**.vector-recording = false

**.eth[*].queue.packetCapacity = 100

**.tcp.typename = "Tcp"
**.tcp.mss = 1024
**.tcp.advertisedWindow = 14336
**.tcp.tcpAlgorithmClass = "TcpReno"

*.A.bgp.addressFamily = "ipv6"
*.B.bgp.addressFamily = "ipv6"
*.C.bgp.addressFamily = "ipv6"
*.D.bgp.addressFamily = "ipv6"
*.A.bgp.routingTableModule = "^.ipv6.routingTable"
*.B.bgp.routingTableModule = "^.ipv6.routingTable"
*.C.bgp.routingTableModule = "^.ipv6.routingTable"
*.D.bgp.routingTableModule = "^.ipv6.routingTable"
**.bgpConfig = xmldoc("BgpConfig6.xml")
**.bgp.startDelay = 2s
**.bgp.connectRetryTime = 5s
**.bgp.holdTime = 6s
**.bgp.keepAliveTime = 2s

*.A.bgp.routerId = "1.1.1.1"
*.B.bgp.routerId = "2.2.2.2"
*.C.bgp.routerId = "3.3.3.3"
*.D.bgp.routerId = "4.4.4.4"

*.visualizer.interfaceTableVisualizer.displayInterfaceTables = true

*.hostA.numApps = 1
*.hostA.app[0].typename = "PingApp"
*.hostA.app[0].destAddr = "2001:db8:3::100"
*.hostA.app[0].startTime = 20s
*.hostA.app[0].sendInterval = 1s

*.hostC.numApps = 1
*.hostC.app[0].typename = "PingApp"
*.hostC.app[0].destAddr = ""

*.scenarioManager.script = xml( \
        "<script>\n" + \
        "<at t='60s'><shutdown module='B'/></at>\n" + \
        "<at t='100s'><startup module='B'/></at>\n" + \
        "</script>")
