[General]
network = Crosstalk
tkenv-plugin-path = ../../../etc/plugins
#record-eventlog = true
sim-time-limit = 0.1s
seed-set = 1

**.constraintAreaMinX = 0m
**.constraintAreaMinY = 0m
**.constraintAreaMinZ = 0m
**.constraintAreaMaxX = 100m
**.constraintAreaMaxY = 100m
**.constraintAreaMaxZ = 0m

# mobility
*.*Node[*].mobilityType = "StationaryMobility"
*.*Node[*].mobility.initFromDisplayString = false

# udpApp
*.*Node[*].numUdpApps = 1
*.*Node[0].udpApp[0].typename = "UDPSink"
*.*Node[*].udpApp[0].typename = "UDPBasicApp"
*.*Node[*].udpApp[0].localPort = 100
*.*Node[*].udpApp[0].destPort = 100
*.*Node[*].udpApp[0].messageLength = 1250B
*.*Node[*].udpApp[0].startTime = exponential(100us)
*.*Node[*].udpApp[0].sendInterval = exponential(100us)
*.aNode[*].udpApp[0].destAddresses = "aNode[0]"
*.bNode[*].udpApp[0].destAddresses = "bNode[0]"

# nic
*.*Node[*].wlan[*].radioType = "Ieee80211DimensionalRadio"

# medium
*.radioMedium.backgroundNoise.dimensions = "time frequency"

# radio
*.*Node[*].wlan[*].radio.bandwidth = 20 MHz
*.*Node[*].wlan[*].radio.transmitter.dimensions = "time frequency"
*.aNode[*].wlan[*].radio.channelNumber = 1
*.bNode[*].wlan[*].radio.channelNumber = ${channelNumber=2..10}
