[General]
network = Crosstalk
#record-eventlog = true
sim-time-limit = 0.1s
seed-set = 1

**.constraintAreaMinX = 0m
**.constraintAreaMinY = 0m
**.constraintAreaMinZ = 0m
**.constraintAreaMaxX = 100m
**.constraintAreaMaxY = 100m
**.constraintAreaMaxZ = 0m

# mobility
*.*Node[*].mobility.typename = "StationaryMobility"
*.*Node[*].mobility.initFromDisplayString = false

# udp App
*.*Node[*].numApps = 1
*.*Node[0].app[0].typename = "UdpSink"
*.*Node[*].app[0].typename = "UdpBasicApp"
*.*Node[*].app[0].localPort = 100
*.*Node[*].app[0].destPort = 100
*.*Node[*].app[0].messageLength = 1250B
*.*Node[*].app[0].startTime = exponential(100us)
*.*Node[*].app[0].sendInterval = exponential(100us)
*.aNode[*].app[0].destAddresses = "aNode[0]"
*.bNode[*].app[0].destAddresses = "bNode[0]"

# nic
*.*Node[*].wlan[*].radio.typename = "Ieee80211DimensionalRadio"

# medium
*.radioMedium.backgroundNoise.dimensions = "time frequency"

# radio
*.*Node[*].wlan[*].radio.transmitter.bandwidth = 20 MHz
*.*Node[*].wlan[*].radio.receiver.bandwidth = 20 MHz
*.*Node[*].wlan[*].radio.transmitter.dimensions = "time frequency"
*.aNode[*].wlan[*].radio.channelNumber = 1
*.bNode[*].wlan[*].radio.channelNumber = ${channelNumber=2..10}
