[General]
network = BabelAdjacency
sim-time-limit = 60s

# IPv6-only routers running Babel
**.hasIpv4 = false
**.hasIpv6 = true
**.hasBabel = true
