[General]
sim-time-limit = 300s

# ip settings
**.ip.procDelay = 1us

# NIC configuration
**.eth[*].queue.typename = "EtherQosQueue"
**.eth[*].queue.dataQueue.typename = "DropTailQueue"
**.eth[*].queue.dataQueue.frameCapacity = 100

**.hasStatus = true

# OSPF configuration

# BGP settings
**.bgpConfig = xmldoc("config.xml")

description = "BGP example 1 loopback"
network = BGPTestLoopback

fingerprint = 7ccd-d055/tplx
**.scenarioManager.script = xml("<empty/>")

[Config LinkDown]
fingerprint = fc68-bada/tplx
**.scenarioManager.script = xmldoc("scenario1.xml")

[Config LinkDownAndUp]
fingerprint = 2dcb-99f9/tplx
**.scenarioManager.script = xmldoc("scenario2.xml")



