#
# To try: ./LANs -f bus.ini
#

[General]
sim-time-limit = 120s
tkenv-plugin-path = ../../../etc/plugins
**.vector-recording = false

[Config BusLAN]
network = BusLAN
**.hostA.cli.destAddress = ""
**.cli.destAddress = "hostA"
**.cli.sendInterval = exponential(1s)
**.host*.mac.duplexMode = false

include defaults.ini
