[General]
sim-time-limit = 120s
**.vector-recording = false

[Config SwitchedDuplexLAN]
network = SwitchedDuplexLAN
**.hostA.cli.destAddress = ""
**.cli.destAddress = "hostA"
**.cli.sendInterval = exponential(10ms)
**.cli.reqLength = intuniform(50,1400)*1B
**.cli.respLength = intWithUnit(truncnormal(3000B,3000B))
**.switch*.relayUnit.typename = "MacRelayUnit"
