include largenet.ini

[Run 1]
sim-time-limit = 3s
fingerprint = "3173-4c33"