include omnetpp.ini

[Config MixedLAN1]
sim-time-limit = 200s
fingerprint = "101a-c505"
