include omnetpp.ini

[Run 1]
sim-time-limit = 200s
fingerprint = "101a-c505"