[General]
network = HubLAN
sim-time-limit = 120s
**.vector-recording = false

**.cli.reqLength = intuniform(50,1400)*1B
**.cli.respLength = intWithUnit(truncnormal(3000B,3000B))

[Config Hub1]
**.hostA.cli.destAddress = ""
**.cli.destAddress = "hostA"
**.cli.sendInterval = exponential(1s)

[Config Hub2]
# bigger load, frequent collisions
**.hostA.cli.destAddress = ""
**.cli.destAddress = "hostA"
**.cli.sendInterval = exponential(2ms)

[Config Hub3]
# manual address assignment
**.hostA.eth.address = "001122334455"
**.hostA.cli.destAddress = ""
**.cli.destAddress = "001122334455"
**.cli.sendInterval = exponential(1s)
