[General]
sim-time-limit = 120s
record-vector-results = false
description = "(abstract)"

[Config MixedLAN]
network = MixedLAN
**.switchHostA.cli.destAddress = ""
**.cli.reqLength = intuniform(50,1400)*1B
**.cli.respLength = intWithUnit(truncnormal(3000B,3000B))
**.cli.destAddress = "switchHostA"
**.cli.sendInterval = exponential(1s)
**.switch*.bridging.typename = "MacRelayUnit"
