[General]
sim-time-limit = 1200s
**.vector-recording = false

[Config MixedLAN1]
network = MixedLAN
**.switchHostA.cli.destAddress = ""
**.cli.destAddress = "switchHostA"
**.cli.sendInterval = exponential(1s)
**.cli.reqLength = intuniform(50,1400)*1B
**.cli.respLength = intWithUnit(truncnormal(3000B,3000B))
**.channel.thruputDisplayFormat = "#N"
**.switch*.relayUnit.typename = "MacRelayUnit"
