#
# IPv6 conformance suite -- shared config for Mobile IPv6 (RFC 6275) on the wireless
# Mipv6Demo network (defined in ../lib): a Home Agent, a Correspondent Node, two routers
# and access points, and a mobile node (MN) that roams from its home AP to a foreign AP.
# The MN registers with its Home Agent, runs the return-routability procedure with the CN,
# and route-optimizes. Replicates [Config Mipv6Scenario] from ../lib/omnetpp.ini; the network
# and its ProtocolTester come from ../lib via the NEDPATH set by run-tests.sh.
#
# SPDX-License-Identifier: LGPL-3.0-or-later
#
[General]
network = inet.protocoltest.Mipv6Demo
sim-time-limit = 85s
seed-set = 1
num-rngs = 3
record-vector-results = false
**.mobility.rng-0 = 2
*.total_mn = 1
*.total_cn = 1

# RA-based movement detection
**.neighbourDiscovery.minIntervalBetweenRAs = 3s
**.neighbourDiscovery.maxIntervalBetweenRAs = 7s
**.neighbourDiscovery.detectL2Movement = false

# radio medium
*.radioMedium.mediumLimitCache.maxTransmissionPower = 2.0mW
*.radioMedium.mediumLimitCache.minReceptionPower = -82dBm
*.radioMedium.mediumLimitCache.minInterferencePower = -82dBm
**.analogModel.ignorePartialInterference = true

# access points
**.wlan*.mgmt.numAuthSteps = 4
**.AP*.wlan*.mgmt.beaconInterval = 0.1s
**.AP_Home.wlan*.mgmt.ssid = "HOME"
**.AP_Home.wlan*.address = "10:AA:00:00:00:01"
**.AP_Home.eth[0].address = "10:AE:00:00:00:02"
**.AP_Home.eth[0].duplexMode = true
**.AP_1.wlan*.mgmt.ssid = "AP1"
**.AP_1.wlan*.address = "10:AA:00:00:A1:01"
**.AP_1.eth[0].address = "10:AE:00:00:A1:02"
**.AP_1.eth[0].duplexMode = true

# mobile node movement (rectangle: dwells in each AP's coverage; handover completes < t=70)
**.mobility.constraintAreaMinZ = 0m
**.mobility.constraintAreaMaxZ = 0m
**.MN[0].mobility.typename = "RectangleMobility"
**.MN[0].mobility.constraintAreaMinX = 180m
**.MN[0].mobility.constraintAreaMinY = 170m
**.MN[0].mobility.constraintAreaMaxX = 630m
**.MN[0].mobility.constraintAreaMaxY = 180m
**.MN[0].mobility.startPos = 0
**.MN[0].mobility.speed = 5mps
**.MN*.mobility.updateInterval = 0.1s

# CN sends sparse pings to the MN's home address; tunneled traffic triggers route optimization
**.MN*.numApps = 0
**.CN*.numApps = 1
**.CN*.app[*].typename = "PingApp"
**.CN[0].app[0].destAddr = "aaaa:0:66:0:8aa:ff:fe00:8"
**.CN*.app[0].packetSize = 56B
**.CN*.app[*].sendInterval = 2s
**.CN*.app[0].hopLimit = 32
**.CN[0].app[0].count = 5
**.CN[0].app[0].startTime = 71s

**.forwarding = false

# Ethernet NICs
**.eth[*].queue.typename = "EthernetQosQueue"
**.eth[*].queue.dataQueue.typename = "DropTailQueue"
**.eth[*].queue.dataQueue.packetCapacity = 10
**.eth*.duplexMode = true

# wireless channels
**.AP_Home.wlan*.radio.channelNumber = 1
**.AP_1.wlan*.radio.channelNumber = 2
**.MN*.wlan*.radio.channelNumber = 0
**.wlan*.agent.activeScan = true
**.wlan*.agent.defaultSsid = ""
**.wlan*.agent.channelsToScan = "1 2"
**.wlan*.agent.probeDelay = 0.1s
**.wlan*.agent.minChannelTime = 0.15s
**.wlan*.agent.maxChannelTime = 0.3s
**.wlan*.agent.authenticationTimeout = 5s
**.wlan*.agent.associationTimeout = 5s
**.wlan*.bitrate = 2Mbps
**.wlan*.mac.dcf.channelAccess.cwMin = 7
**.radio.transmitter.power = 2.0mW

**.constraintAreaMinX = 0m
**.constraintAreaMinY = 0m
**.constraintAreaMaxX = 850m
**.constraintAreaMaxY = 850m
