#
# IPv6 conformance suite -- Mobile IPv6 return-home scenario. Like _mipv6.ini but the mobile
# node moves faster (20 mps) and the routers advertise very frequently, so within the run the
# MN completes a full home -> foreign -> home trip: it registers a care-of address on the
# foreign link and, on returning, detects its home prefix on-link again and de-registers with
# the Home Agent (a Binding Update with lifetime 0). Adapted from tests/module/MIPv6_return_home.
# Standalone (not an include of _mipv6.ini) so the differing movement/RA parameters are
# unambiguous. The network + ProtocolTester come from ../lib via the NEDPATH set by run-tests.sh.
#
# SPDX-License-Identifier: LGPL-3.0-or-later
#
[General]
network = inet.protocoltest.Mipv6Demo
sim-time-limit = 55s
seed-set = 1
num-rngs = 3
record-vector-results = false
**.mobility.rng-0 = 2
*.total_mn = 1
*.total_cn = 1

# Fast, RA-based movement detection (so the round trip is detected quickly).
**.neighbourDiscovery.minIntervalBetweenRAs = 0.03s
**.neighbourDiscovery.maxIntervalBetweenRAs = 0.07s
**.neighbourDiscovery.detectL2Movement = false

# radio medium
*.radioMedium.mediumLimitCache.maxTransmissionPower = 2.0mW
*.radioMedium.mediumLimitCache.minReceptionPower = -82dBm
*.radioMedium.mediumLimitCache.minInterferencePower = -82dBm
**.analogModel.ignorePartialInterference = true

# access points
**.wlan*.mgmt.numAuthSteps = 4
**.AP*.wlan*.mgmt.beaconInterval = 0.1s
**.AP_Home.wlan*.mgmt.ssid = "HOME"
**.AP_Home.wlan*.address = "10:AA:00:00:00:01"
**.AP_Home.eth[0].address = "10:AE:00:00:00:02"
**.AP_Home.eth[0].duplexMode = true
**.AP_1.wlan*.mgmt.ssid = "AP1"
**.AP_1.wlan*.address = "10:AA:00:00:A1:01"
**.AP_1.eth[0].address = "10:AE:00:00:A1:02"
**.AP_1.eth[0].duplexMode = true

# mobile node movement (rectangle at 20 mps -> a full home->foreign->home trip in the run)
**.mobility.constraintAreaMinZ = 0m
**.mobility.constraintAreaMaxZ = 0m
**.MN[0].mobility.typename = "RectangleMobility"
**.MN[0].mobility.constraintAreaMinX = 180m
**.MN[0].mobility.constraintAreaMinY = 170m
**.MN[0].mobility.constraintAreaMaxX = 630m
**.MN[0].mobility.constraintAreaMaxY = 180m
**.MN[0].mobility.startPos = 0
**.MN[0].mobility.speed = 20mps
**.MN*.mobility.updateInterval = 0.1s

# No apps: this scenario tests the handover + return-home signalling only.
**.MN*.numApps = 0
**.CN*.numApps = 0

**.forwarding = false

# Ethernet NICs
**.eth[*].queue.typename = "EthernetQosQueue"
**.eth[*].queue.dataQueue.typename = "DropTailQueue"
**.eth[*].queue.dataQueue.packetCapacity = 10
**.eth*.duplexMode = true

# wireless channels
**.AP_Home.wlan*.radio.channelNumber = 1
**.AP_1.wlan*.radio.channelNumber = 2
**.MN*.wlan*.radio.channelNumber = 0
**.wlan*.agent.activeScan = true
**.wlan*.agent.defaultSsid = ""
**.wlan*.agent.channelsToScan = "1 2"
**.wlan*.agent.probeDelay = 0.1s
**.wlan*.agent.minChannelTime = 0.15s
**.wlan*.agent.maxChannelTime = 0.3s
**.wlan*.agent.authenticationTimeout = 5s
**.wlan*.agent.associationTimeout = 5s
**.wlan*.bitrate = 2Mbps
**.wlan*.mac.dcf.channelAccess.cwMin = 7
**.radio.transmitter.power = 2.0mW

**.constraintAreaMinX = 0m
**.constraintAreaMinY = 0m
**.constraintAreaMaxX = 850m
**.constraintAreaMaxY = 850m
