#
# IPv6 conformance suite -- shared config for Proxy Mobile IPv6 (RFC 5213) on the Pmipv6Demo
# network. A plain wireless mobile node (no mobility software) attaches under mag1 and roams
# to mag2; each MAG registers it with the LMA on its behalf, and the node keeps its home
# address (2001:db8:1:0:8aa:ff:fe00:b, SLAAC from the home prefix 2001:db8:1::/64 advertised
# by the serving MAG). A correspondent node pings that constant address across the handover.
# Replicates examples/ipv6/pmipv6/omnetpp.ini with the config/movement XML inlined.
#
# SPDX-License-Identifier: LGPL-3.0-or-later
#
[General]
network = inet.protocoltest.ipv6.Pmipv6Demo
sim-time-limit = 60s
seed-set = 1
num-rngs = 3
record-vector-results = false
**.mobility.rng-0 = 2

# Configurator: only the wired backhaul is statically addressed; the MAG access (wlan)
# interfaces carry no prefix -- the home network prefix is advertised dynamically per MN.
*.configurator.assignAddressesToHosts = false
*.configurator.config = xml("<config> \
        <interface hosts='lma' towards='cn' address='2001:db8:ff::1'/> \
        <interface hosts='lma'  towards='mag1' address='2001:db8:0:1::1'/> \
        <interface hosts='mag1' towards='lma'  address='2001:db8:0:1::2'/> \
        <interface hosts='lma'  towards='mag2' address='2001:db8:0:2::1'/> \
        <interface hosts='mag2' towards='lma'  address='2001:db8:0:2::2'/> \
    </config>")

# PMIPv6 domain: each MAG's LMA address + the shared mobile-node profile (same home network
# prefix from both MAGs, so the node's address is constant).
*.mag1.ipv6.pmipv6.localMobilityAnchorAddress = "2001:db8:0:1::1"
*.mag2.ipv6.pmipv6.localMobilityAnchorAddress = "2001:db8:0:2::1"
*.mag*.ipv6.pmipv6.mobileNodeProfiles = xml("<mobileNodes><mobileNode id='mn1@example.com' homeNetworkPrefix='2001:db8:1::' prefixLength='64'/></mobileNodes>")

*.mag*.numWlanInterfaces = 1
*.mn.numWlanInterfaces = 1

# access points (one channel each) + the mobile node's wlan
**.mag*.wlan*.mgmt.beaconInterval = 0.1s
*.mag1.wlan*.mgmt.ssid = "MAG1"
*.mag1.wlan*.address = "10:AA:00:00:01:01"
*.mag1.wlan*.radio.channelNumber = 0
*.mag2.wlan*.mgmt.ssid = "MAG2"
*.mag2.wlan*.address = "10:AA:00:00:02:01"
*.mag2.wlan*.radio.channelNumber = 1
*.mn.wlan*.address = "0A:AA:00:00:00:0B"
*.mn.wlan*.agent.channelsToScan = "0 1"
*.mn.wlan*.agent.probeDelay = 0.1s
*.mn.wlan*.agent.minChannelTime = 0.15s
*.mn.wlan*.agent.maxChannelTime = 0.3s
*.mn.wlan*.agent.authenticationTimeout = 5s
*.mn.wlan*.agent.associationTimeout = 5s
**.mgmt.numChannels = 5
**.wlan*.bitrate = 2Mbps
**.wlan*.mac.dcf.channelAccess.cwMin = 7

# radio medium
*.radioMedium.mediumLimitCache.maxTransmissionPower = 2.0mW
*.radioMedium.mediumLimitCache.minReceptionPower = -82dBm
*.radioMedium.mediumLimitCache.minInterferencePower = -82dBm
**.radio.transmitter.power = 2.0mW
**.analogModel.ignorePartialInterference = true
**.neighbourDiscovery.minIntervalBetweenRAs = 1s
**.neighbourDiscovery.maxIntervalBetweenRAs = 3s

# mobility: MAGs stationary; the MN dwells under mag1, dashes to mag2 (one handover), dwells.
*.mag1.mobility.typename = "StationaryMobility"
*.mag1.mobility.initialX = 250m
*.mag1.mobility.initialY = 260m
*.mag2.mobility.typename = "StationaryMobility"
*.mag2.mobility.initialX = 550m
*.mag2.mobility.initialY = 260m
*.mn.mobility.typename = "TurtleMobility"
*.mn.mobility.turtleScript = xml("<movement><set x='250' y='400'/><set speed='20'/><wait t='20'/><moveto x='550' y='400'/><wait t='100'/></movement>")
*.mn.mobility.updateInterval = 0.1s
**.mobility.constraintAreaMinZ = 0m
**.mobility.constraintAreaMaxZ = 0m
**.constraintAreaMinX = 0m
**.constraintAreaMinY = 0m
**.constraintAreaMaxX = 800m
**.constraintAreaMaxY = 500m

# correspondent node pings the MN's constant home address across the handover
*.cn.numApps = 1
*.cn.app[0].typename = "PingApp"
*.cn.app[0].destAddr = "2001:db8:1:0:8aa:ff:fe00:b"
*.cn.app[0].packetSize = 56B
*.cn.app[0].sendInterval = 0.5s
*.cn.app[0].startTime = 8s
*.cn.app[0].hopLimit = 32
*.cn.forwarding = false
*.mn.forwarding = false

# Ethernet NICs
**.eth[*].queue.typename = "EthernetQosQueue"
**.eth[*].queue.dataQueue.typename = "DropTailQueue"
**.eth[*].queue.dataQueue.packetCapacity = 10
