[General]
preload-ned-files = *.ned @../../../nedfiles.lst
network = RSVPTE

sim-time-limit = 6s
;cpu-time-limit= 5800000s
;debug-on-errors = true

total-stack-kb =  65536

[Cmdenv]
express-mode = no

[Tkenv]
plugin-path=../../../Etc/plugins
default-run = 1

[Parameters]

**.host1.numUdpApps=1
**.host1.udpAppType="UDPBasicApp"
**.host1.udpApp[0].local_port = 100
**.host1.udpApp[0].dest_port = 100
**.host1.udpApp[0].message_length = 1000
**.host1.udpApp[0].message_freq = 0.01s
**.host1.udpApp[0].dest_addresses = "10.2.1.1"

**.host3.numUdpApps=1
**.host3.udpAppType="UDPSink"
**.host3.udpApp[0].local_port = 100

**.numUdpApps=0
**.udpAppType="UDPBasicApp"

# tcp apps
**.host*.numTcpApps=0
**.host*.tcpAppType="TCPGenericSrvApp"
**.host*.tcpApp[0].address=""
**.host*.tcpApp[0].port=1000
**.host*.tcpApp[0].replyDelay=0

# ping app
**.pingApp.destAddr=""
**.pingApp.srcAddr=""
**.pingApp.packetSize=56
**.pingApp.interval=1
**.pingApp.hopLimit=32
**.pingApp.count=0
**.pingApp.startTime=1
**.pingApp.stopTime=0
**.pingApp.printPing=true

# tcp config
**.tcp.mss = 1024
**.tcp.advertisedWindow = 14336  # 14*mss
**.tcp.sendQueueClass="TCPMsgBasedSendQueue"
**.tcp.receiveQueueClass="TCPMsgBasedRcvQueue"
**.tcp.tcpAlgorithmClass="TCPReno"
**.tcp.recordStats=true

# ip config
**.host*.IPForward=false
**.host1.routingFile = "host1.rt"
**.host2.routingFile = "host2.rt"
**.host3.routingFile = "host3.rt"
**.host4.routingFile = "host4.rt"
**.host5.routingFile = "host5.rt"

# ARP configuration
**.arp.retryTimeout = 1
**.arp.retryCount = 3
**.arp.cacheTimeout = 100
**.networkLayer.proxyARP = true  # Host's is hardwired "false"

# LSR configuration

**.nam.logfile = "trace.nam"
**.nam.prolog = "c -t * -i 1 -n Red;c -t * -i 2 -n Blue;c -t * -i 100 -n Green;c -t * -i 101 -n Magenta;c -t * -i 200 -n Orange;c -t * -i 300 -n Brown"

**.host1.namid = 11
**.host2.namid = 12
**.host5.namid = 13
**.host3.namid = 14
**.host4.namid = 15

**.LSR1.classifier.conf = xmldoc("LSR1_fec.xml")
**.LSR1.rsvp.traffic = xmldoc("LSR1_rsvp.xml")

**.LSR*.classifier.conf = xmldoc("_fec.xml")
**.LSR*.rsvp.traffic = xmldoc("_traffic.xml")
**.LSR*.rsvp.helloInterval = 0.2
**.LSR*.rsvp.helloTimeout = 0.5
**.LSR*.libTable.conf = xmldoc("_lib.xml")

**.nam.namlog = "trace.nam"
**.nam.prolog = "c -t * -i 1 -n Red;c -t * -i 2 -n Blue;c -t * -i 100 -n Green;c -t * -i 101 -n Magenta;c -t * -i 200 -n Orange;c -t * -i 300 -n Brown"
**.LSR*.namprolog = ""

**.LSR1.routerId = "10.1.1.1"
**.LSR1.routingFile = "LSR1.rt"
**.LSR1.namid = 1

**.LSR2.routerId = "10.1.2.1"
**.LSR2.routingFile = "LSR2.rt"
**.LSR2.namid = 2

**.LSR3.routerId = "10.1.3.1"
**.LSR3.routingFile = "LSR3.rt"
**.LSR3.namid = 3

**.LSR4.routerId = "10.1.4.1"
**.LSR4.routingFile = "LSR4.rt"
**.LSR4.namid = 4

**.LSR5.routerId = "10.1.5.1"
**.LSR5.routingFile = "LSR5.rt"
**.LSR5.namid = 5

**.LSR6.routerId = "10.1.6.1"
**.LSR6.routingFile = "LSR6.rt"
**.LSR6.namid = 6

**.LSR7.routerId = "10.1.7.1"
**.LSR7.routingFile = "LSR7.rt"
**.LSR7.namid = 7

# IP module settings
**.ip.procDelay=10us

# NIC configuration
**.ppp[*].queueType = "DropTailQueue" # in routers
**.ppp[*].queue.frameCapacity = 10  # in routers

# scenario
**.scenarioManager.script = xmldoc("scenario.xml")
