[General]
network = LoRaNetworkTest
**.maxTransmissionDuration = 4s

#cmdenv-autoflush = true
#cmdenv-status-frequency = 10000000s
#cmdenv-express-mode = false
#cmdenv-output-file = cmd_env_log.txt
**.vector-recording = false

rng-class = "cMersenneTwister"
**.loRaGW[*].numUdpApps = 1
**.loRaGW[0].packetForwarder.localPort = 2000
**.loRaGW[0].packetForwarder.destPort = 1000
**.loRaGW[0].packetForwarder.destAddresses = "networkServer"
**.loRaGW[0].packetForwarder.indexNumber = 0

**.networkServer.numApps = 1
**.networkServer.**.evaluateADRinServer = false
**.networkServer.app[0].typename = "NetworkServerApp"
**.networkServer.app[0].destAddresses = "loRaGW[0]"
**.networkServer.app[0].destPort = 2000
**.networkServer.app[0].localPort = 1000
**.networkServer.app[0].adrMethod = ${"avg"}

**.numberOfPacketsToSend = 0 #${numberOfPAckets = 200..5000 step 200} #100 #obviously 0 means infinite number of packets
sim-time-limit = 1d
simtime-resolution = -11
repeat = 30

**.timeToFirstPacket = exponential(1000s)
**.timeToNextPacket = exponential(1000s)
**.alohaChannelModel = false

#nodes features
**.numberOfNodes = 10
**.constraintAreaMaxX = 2376.0m
**.constraintAreaMaxY = 1090.0m
**.initFromDisplayString = false

**.loRaNodes[0].**.initialX = 590.63m
**.loRaNodes[0].**.initialY = 529.08m
**.loRaNodes[0].**initialLoRaSF = 8
**.loRaNodes[0].**initialLoRaTP = 8dBm
**.loRaNodes[0].**initialLoRaBW = 125 kHz
**.loRaNodes[0].**initialLoRaCR = 4
**.loRaNodes[0].**.evaluateADRinNode = false

#gateway features
**.numberOfGateways = 1
**.loRaGW[0].**.initialX = 544.00m
**.loRaGW[0].**.initialY = 544.00m
**.LoRaGWNic.radio.iAmGateway = true

#power consumption features
**.loRaNodes[*].LoRaNic.radio.energyConsumer.typename = "LoRaEnergyConsumer"
**.loRaNodes[*].**.energySourceModule = "IdealEpEnergyStorage"
**.loRaNodes[*].LoRaNic.radio.energyConsumer.configFile = xmldoc("energyConsumptionParameters.xml")

#general features
**.sigma = 3.57
**.constraintAreaMinX = 0m
**.constraintAreaMinY = 0m
**.constraintAreaMinZ = 0m
**.constraintAreaMaxZ = 0m

LoRaNetworkTest.**.radio.separateTransmissionParts = false
LoRaNetworkTest.**.radio.separateReceptionParts = false

**.ipv4Delayer.config = xmldoc("cloudDelays.xml")
**.radio.radioMediumModule = "LoRaMedium"
**.LoRaMedium.pathLossType = "LoRaLogNormalShadowing"
**.minInterferenceTime = 0s
**.displayAddresses = false

# cache features
# **.LoRaMedium.mediumLimitCacheType = "LoRaMediumCache"
# **.LoRaMedium.rangeFilter = "communicationRange"
# **.LoRaMedium.neighborCacheType = "LoRaNeighborCache"
# **.LoRaMedium.neighborCache.range = 546m
# **.LoRaMedium.neighborCache.refillPeriod = 3000s