[General]
network = EigrpTestNetwork
sim-time-limit = 3min
num-rngs = 2

**.eigrp.*.rng-0 = 1
**.interfaceTable.displayAddresses = true

**.R1.eigrp.configData = xmldoc("config.xml", "Devices/Router[@id='10.0.1.0']/")
**.R2.eigrp.configData = xmldoc("config.xml", "Devices/Router[@id='10.0.2.0']/")

**.hasIpv6 = false

**.scenarioManager.script = xmldoc("scenario.xml")
