[General]
network = EigrpTestNetwork
#total-stack = 7MiB
tkenv-plugin-path = ../../../../etc/plugins
sim-time-limit = 5min
debug-on-errors = true
num-rngs = 2
**.eigrp.*.rng-0 = 1
 
fingerprint = "ca66-61bf"
 
# record message exchange (sequence charts)
record-eventlog = true

**.R1.eigrp.configData = xmldoc("config.xml", "Devices/Router[@id='10.0.1.0']/")
**.R2.eigrp.configData = xmldoc("config.xml", "Devices/Router[@id='10.0.2.0']/")

**.enableIPv6 = false
**.enableCLNS = false

**.scenarioManager.script = xmldoc("scenario.xml")
