%description:

Tests packet streaming.

%file: test.ned

import inet.queueing.source.ActivePacketSource;
import inet.queueing.sink.PassivePacketSink;
import inet.protocolelement.common.PacketStreamer;
import inet.protocolelement.common.PacketDestreamer;

network TestStreaming
{
    submodules:
        source: ActivePacketSource {
            @display("p=100,100");
        }
        streamer: PacketStreamer {
            @display("p=100,200");
        }
        destreamer: PacketDestreamer {
            @display("p=100,300");
        }
        sink: PassivePacketSink {
            @display("p=100,400");
        }
    connections:
        source.out --> streamer.in;
        streamer.out --> destreamer.in;
        destreamer.out --> sink.in;
}

%inifile: omnetpp.ini

[General]
network = TestStreaming
sim-time-limit = 10s
cmdenv-event-banners = false
*.source.packetLength = 100B
*.source.productionInterval = 1s
*.*.datarate = 100Mbps

%subst: /\nRunning simulation\.\.\.\n//

%contains-regex: stdout
Producing packet, .*?source-0.*?
Starting streaming packet, .*?source-0.*?
Starting destreaming packet, .*?source-0.*?
Ending streaming packet, .*?source-0.*?
Ending destreaming packet, .*?source-0.*?
Consuming packet, .*?source-0.*?
Producing packet, .*?source-1.*?
Starting streaming packet, .*?source-1.*?
Starting destreaming packet, .*?source-1.*?
Ending streaming packet, .*?source-1.*?
Ending destreaming packet, .*?source-1.*?
Consuming packet, .*?source-1.*?
Producing packet, .*?source-2.*?
Starting streaming packet, .*?source-2.*?
Starting destreaming packet, .*?source-2.*?
Ending streaming packet, .*?source-2.*?
Ending destreaming packet, .*?source-2.*?
Consuming packet, .*?source-2.*?
Producing packet, .*?source-3.*?
Starting streaming packet, .*?source-3.*?
Starting destreaming packet, .*?source-3.*?
Ending streaming packet, .*?source-3.*?
Ending destreaming packet, .*?source-3.*?
Consuming packet, .*?source-3.*?
Producing packet, .*?source-4.*?
Starting streaming packet, .*?source-4.*?
Starting destreaming packet, .*?source-4.*?
Ending streaming packet, .*?source-4.*?
Ending destreaming packet, .*?source-4.*?
Consuming packet, .*?source-4.*?
Producing packet, .*?source-5.*?
Starting streaming packet, .*?source-5.*?
Starting destreaming packet, .*?source-5.*?
Ending streaming packet, .*?source-5.*?
Ending destreaming packet, .*?source-5.*?
Consuming packet, .*?source-5.*?
Producing packet, .*?source-6.*?
Starting streaming packet, .*?source-6.*?
Starting destreaming packet, .*?source-6.*?
Ending streaming packet, .*?source-6.*?
Ending destreaming packet, .*?source-6.*?
Consuming packet, .*?source-6.*?
Producing packet, .*?source-7.*?
Starting streaming packet, .*?source-7.*?
Starting destreaming packet, .*?source-7.*?
Ending streaming packet, .*?source-7.*?
Ending destreaming packet, .*?source-7.*?
Consuming packet, .*?source-7.*?
Producing packet, .*?source-8.*?
Starting streaming packet, .*?source-8.*?
Starting destreaming packet, .*?source-8.*?
Ending streaming packet, .*?source-8.*?
Ending destreaming packet, .*?source-8.*?
Consuming packet, .*?source-8.*?
Producing packet, .*?source-9.*?
Starting streaming packet, .*?source-9.*?
Starting destreaming packet, .*?source-9.*?
Ending streaming packet, .*?source-9.*?
Ending destreaming packet, .*?source-9.*?
Consuming packet, .*?source-9.*?
Producing packet, .*?source-10.*?
Starting streaming packet, .*?source-10.*?
Starting destreaming packet, .*?source-10.*?
