%description:

Tests SubpacketLengthHeader based aggregation.

%file: test.ned

import inet.queueing.source.ActivePacketSource;
import inet.queueing.sink.PassivePacketSink;
import inet.protocolelement.aggregation.SubpacketLengthHeaderBasedAggregator;
import inet.protocolelement.aggregation.SubpacketLengthHeaderBasedDeaggregator;

network TestSubpacketLengthHeaderBasedAggregation
{
    submodules:
        source: ActivePacketSource {
            @display("p=100,100");
        }
        aggregator: SubpacketLengthHeaderBasedAggregator {
            @display("p=100,200");
        }
        deaggregator: SubpacketLengthHeaderBasedDeaggregator {
            @display("p=100,300");
        }
        sink: PassivePacketSink {
            @display("p=100,400");
        }
    connections:
        source.out --> aggregator.in;
        aggregator.out --> deaggregator.in;
        deaggregator.out --> sink.in;
}

%inifile: omnetpp.ini

[General]
network = TestSubpacketLengthHeaderBasedAggregation
sim-time-limit = 10s
cmdenv-event-banners = false
*.source.packetLength = 100B
*.source.productionInterval = 1s
*.aggregator.aggregatorPolicy.typename = "LengthBasedAggregatorPolicy"
*.aggregator.aggregatorPolicy.maxNumSubpackets = 3
*.aggregator.aggregatorPolicy.maxAggregatedLength = 1000B

%contains-regex: stdout
Producing packet, .*?source-0.*?
Aggregating packet, .*?source-0.*?source-0.*?

Running simulation...
Producing packet, .*?source-1.*?
Aggregating packet, .*?source-1.*?source-0\+source-1.*?
Producing packet, .*?source-2.*?
Aggregating packet, .*?source-2.*?source-0\+source-1\+source-2.*?
Producing packet, .*?source-3.*?
Deaggregating packet, .*?source-0.*?source-0\+source-1\+source-2.*?
Consuming packet, .*?source-0.*?
Deaggregating packet, .*?source-1.*?source-0\+source-1\+source-2.*?
Consuming packet, .*?source-1.*?
Deaggregating packet, .*?source-2.*?source-0\+source-1\+source-2.*?
Consuming packet, .*?source-2.*?
Aggregating packet, .*?source-3.*?source-3.*?
Producing packet, .*?source-4.*?
Aggregating packet, .*?source-4.*?source-3\+source-4.*?
Producing packet, .*?source-5.*?
Aggregating packet, .*?source-5.*?source-3\+source-4\+source-5.*?
Producing packet, .*?source-6.*?
Deaggregating packet, .*?source-3.*?source-3\+source-4\+source-5.*?
Consuming packet, .*?source-3.*?
Deaggregating packet, .*?source-4.*?source-3\+source-4\+source-5.*?
Consuming packet, .*?source-4.*?
Deaggregating packet, .*?source-5.*?source-3\+source-4\+source-5.*?
Consuming packet, .*?source-5.*?
Aggregating packet, .*?source-6.*?source-6.*?
Producing packet, .*?source-7.*?
Aggregating packet, .*?source-7.*?source-6\+source-7.*?
Producing packet, .*?source-8.*?
Aggregating packet, .*?source-8.*?source-6\+source-7\+source-8.*?
Producing packet, .*?source-9.*?
Deaggregating packet, .*?source-6.*?source-6\+source-7\+source-8.*?
Consuming packet, .*?source-6.*?
Deaggregating packet, .*?source-7.*?source-6\+source-7\+source-8.*?
Consuming packet, .*?source-7.*?
Deaggregating packet, .*?source-8.*?source-6\+source-7\+source-8.*?
Consuming packet, .*?source-8.*?
