[General]
network = Synchronized
#abstract-config = true (requires omnet 7)

**.nodeCount = 30

**.constraintAreaMinX = 0m
**.constraintAreaMinY = 0m
**.constraintAreaMinZ = 0m
**.constraintAreaMaxX = 600m
**.constraintAreaMaxY = 400m
**.constraintAreaMaxZ = 0m

*.node[*].numApps = 1
*.node[*].app[0].typename = "UdpBasicApp"
*.node[*].app[0].destAddresses = "224.0.0.1"
*.node[*].app[0].localPort = 1
*.node[*].app[0].destPort = 1
*.node[*].app[0].messageLength = 100B
*.node[*].app[0].joinLocalMulticastGroups = true
**.node[*].app[*].sendInterval = 20ms

[Config Synchronized]
sim-time-limit = 2s
**.node[*].app[0].startTime = 20ms

# radio medium
*.radioMedium.sameTransmissionStartTimeCheck = "ignore"

[Config NonSynchronized]
sim-time-limit = 2s
**.node[*].app[0].startTime = uniform(20ms, 40ms)

