[General]
sim-time-limit = 10s
**.vector-recording = false
*.*.eth[*].bitrate = 100Mbps

# --- Ring ---

[Config SmallRing]
network = inet.examples.topologydemo.SmallRingNetwork

[Config MediumRing]
network = inet.examples.topologydemo.MediumRingNetwork

[Config LargeRing]
network = inet.examples.topologydemo.LargeRingNetwork

# --- Star ---

[Config SmallStar]
network = inet.examples.topologydemo.SmallStarNetwork

[Config MediumStar]
network = inet.examples.topologydemo.MediumStarNetwork

[Config LargeStar]
network = inet.examples.topologydemo.LargeStarNetwork

# --- Full Mesh ---

[Config SmallFullMesh]
network = inet.examples.topologydemo.SmallFullMeshNetwork

[Config MediumFullMesh]
network = inet.examples.topologydemo.MediumFullMeshNetwork

[Config LargeFullMesh]
network = inet.examples.topologydemo.LargeFullMeshNetwork

# --- Tree ---

[Config BinaryTree]
network = inet.examples.topologydemo.BinaryTreeNetwork

[Config TernaryTree]
network = inet.examples.topologydemo.TernaryTreeNetwork

[Config QuadTree]
network = inet.examples.topologydemo.QuadTreeNetwork

# --- Grid ---

[Config SmallGrid]
network = inet.examples.topologydemo.SmallGridNetwork

[Config MediumGrid]
network = inet.examples.topologydemo.MediumGridNetwork

[Config LargeGrid]
network = inet.examples.topologydemo.LargeGridNetwork

# --- Torus ---

[Config SmallTorus]
network = inet.examples.topologydemo.SmallTorusNetwork

[Config MediumTorus]
network = inet.examples.topologydemo.MediumTorusNetwork

[Config LargeTorus]
network = inet.examples.topologydemo.LargeTorusNetwork

# --- Leaf-Spine ---

[Config SmallLeafSpine]
network = inet.examples.topologydemo.SmallLeafSpineNetwork

[Config MediumLeafSpine]
network = inet.examples.topologydemo.MediumLeafSpineNetwork

[Config LargeLeafSpine]
network = inet.examples.topologydemo.LargeLeafSpineNetwork

# --- Fat-Tree ---

[Config SmallFatTree]
network = inet.examples.topologydemo.SmallFatTreeNetwork

[Config MediumFatTree]
network = inet.examples.topologydemo.MediumFatTreeNetwork

[Config LargeFatTree]
network = inet.examples.topologydemo.LargeFatTreeNetwork

# --- Dragonfly ---

[Config SmallDragonfly]
network = inet.examples.topologydemo.SmallDragonflyNetwork

[Config MediumDragonfly]
network = inet.examples.topologydemo.MediumDragonflyNetwork

[Config LargeDragonfly]
network = inet.examples.topologydemo.LargeDragonflyNetwork

# --- DataCenter Variants ---

[Config SmallLeafSpineDC]
network = inet.examples.topologydemo.SmallLeafSpineDataCenterNetwork

[Config LeafSpineDC]
network = inet.examples.topologydemo.LeafSpineDataCenterNetwork

[Config LargeLeafSpineDC]
network = inet.examples.topologydemo.LargeLeafSpineDataCenterNetwork

[Config SmallFatTreeDC]
network = inet.examples.topologydemo.SmallFatTreeDataCenterNetwork

[Config FatTreeDC]
network = inet.examples.topologydemo.FatTreeDataCenterNetwork

[Config LargeFatTreeDC]
network = inet.examples.topologydemo.LargeFatTreeDataCenterNetwork
