[General]
network = SatelliteMobilityShowcase
sim-time-limit = 6000s

# the geocentric (WGS84/ECEF) scene; ground stations and satellites share it
*.coordinateSystem.typename = "GeocentricCoordinateSystem"

# --- satellites, created and driven by the controller from the TLE file ---
*.controller.tleFiles = "satellites.tle"
*.controller.epoch = "2000-06-27T18:50:19Z"   # absolute UTC mapped to simulation time 0
*.controller.nodeType = "inet.examples.mobility.satellite.MobileNode"
*.controller.nodeName = "satellite"

# the created satellite[*] nodes use the SGP4 mobility, resolving the shared coordinate system
*.satellite[*].mobility.typename = "inet.mobility.satellite.SatelliteMobility"
*.satellite[*].mobility.coordinateSystemModule = "^.^.coordinateSystem"
*.satellite[*].mobility.updateInterval = 10s

# --- a ground station placed by latitude/longitude/height (reusing StationaryMobility) ---
*.groundStation.mobility.typename = "StationaryMobility"
*.groundStation.mobility.initFromDisplayString = false   # use latitude/longitude below, not the display string
*.groundStation.mobility.coordinateSystemModule = "^.^.coordinateSystem"
*.groundStation.mobility.initialLatitude = 47.5deg
*.groundStation.mobility.initialLongitude = 19.04deg
*.groundStation.mobility.initialAltitude = 120m

# --- world map visualizer: project satellites and ground stations onto a 2D map ---
*.visualizer.geographicMapVisualizer.typename = "GeographicMapCanvasVisualizer"
*.visualizer.geographicMapVisualizer.coordinateSystemModule = "^.^.coordinateSystem"
*.visualizer.geographicMapVisualizer.projection = "equirectangular"  # or "mercator" (the map image must match)
*.visualizer.geographicMapVisualizer.mapImage = "maps/world-er"
*.visualizer.geographicMapVisualizer.longitudeOffset = -10deg  # degrees; shift if longitude 0 is not at the center of the map image
*.visualizer.geographicMapVisualizer.displayGroundTracks = true
*.visualizer.geographicMapVisualizer.displayFootprints = true
*.visualizer.geographicMapVisualizer.satelliteController = "^.^.controller"  # show absolute UTC clock from the controller's epoch
