
[General]
sim-time-limit = 10s

tkenv-plugin-path = ../../../etc/plugins
**.vector-recording = true
#record-eventlog = true

network = SpeedTest

*.host_10_H_A.cli.destAddress = "host_10_H_B"
*.host_10_H_B.cli.destAddress = "host_10_H_A"

*.host_10_F_A.cli.destAddress = "host_10_F_B"
*.host_10_F_B.cli.destAddress = "host_10_F_A"

*.host_100_H_A.cli.destAddress = "host_100_H_B"
*.host_100_H_B.cli.destAddress = "host_100_H_A"

*.host_100_F_A.cli.destAddress = "host_100_F_B"
*.host_100_F_B.cli.destAddress = "host_100_F_A"

*.host_1000_F_A.cli.destAddress = "host_1000_F_B"
*.host_1000_F_B.cli.destAddress = "host_1000_F_A"

**.cli.reqLength = 1250B       # 10.000 bit
**.cli.respLength = 0B      # no response

#*.host_1000_F_*.cli.startTime = 99999s

*.host_*.cli.startTime = 0s

*.host_*_F_*.mac.duplexEnabled = true

*.host_1000_F_*.cli.sendInterval = 0.005ms       # 10.000 / speed [ / 2 when halfduplex]
*.host_100_F_*.cli.sendInterval  = 0.05ms        # 10.000 / speed [ / 2 when halfduplex]
*.host_100_H_*.cli.sendInterval  = 0.10ms        # 10.000 / speed [ / 2 when halfduplex]
#*.host_100_H_*.cli.sendInterval  = 0.05ms        # 10.000 / speed [ / 2 when halfduplex]
*.host_10_F_*.cli.sendInterval   = 0.5ms            # 10.000 / speed [ / 2 when halfduplex]
*.host_10_H_*.cli.sendInterval   = 1.0ms            # 10.000 / speed [ / 2 when halfduplex]

**.mac.address = "auto"
**.queue.frameCapacity = 1000

# Check: "rx channel idle (%)" <= 2.0
# Check: "rx channel utilization (%)" >= 98.0

