[General]
network = flora.simulations.LoRaNetworkTest
**.maxTransmissionDuration = 4s

#cmdenv-autoflush = true
#cmdenv-status-frequency = 10000000s
#cmdenv-express-mode = false
#cmdenv-output-file = cmd_env_log.txt
**.vector-recording = false

rng-class = "cMersenneTwister"
**.loRaGW[0].numUdpApps = 1
**.loRaGW[0].packetForwarder.localPort = 2000
**.loRaGW[0].packetForwarder.destPort = 1000
**.loRaGW[0].packetForwarder.destAddresses = "networkServer"
**.loRaGW[0].packetForwarder.indexNumber = 0

**.networkServer.numApps = 1
**.networkServer.**.evaluateADRinServer = false
**.networkServer.app[0].typename = "NetworkServerApp"
**.networkServer.app[0].destAddresses = "loRaGW[0]"
**.networkServer.app[0].destPort = 2000
**.networkServer.app[0].localPort = 1000
**.networkServer.app[0].adrMethod = ${"avg"}

**.numberOfPacketsToSend = 0 #${numberOfPAckets = 200..5000 step 200} #100 #obviously 0 means infinite number of packets
sim-time-limit = 1d
simtime-resolution = -11
repeat = 1

**.timeToFirstPacket = exponential(1000s)
**.timeToNextPacket = exponential(1000s)
**.alohaChannelModel = false

#nodes features
**.loRaNodes[*].**.initFromDisplayString = false
**.loRaNodes[*].**.evaluateADRinNode = false
**.loRaNodes[*].**initialLoRaBW = 125 kHz
**.loRaNodes[*].**initialLoRaCR = 4

#gateway features
**.LoRaGWNic.radio.iAmGateway = true
**.loRaGW[*].**.initFromDisplayString = false

#power consumption features
**.loRaNodes[*].LoRaNic.radio.energyConsumer.typename = "LoRaEnergyConsumer"
**.loRaNodes[*].**.energySourceModule = "IdealEpEnergyStorage"
**.loRaNodes[*].LoRaNic.radio.energyConsumer.configFile = xmldoc("../energyConsumptionParameters.xml")

#general features
**.sigma = 3.57
**.constraintAreaMinX = 0m
**.constraintAreaMinY = 0m
**.constraintAreaMinZ = 0m
**.constraintAreaMaxZ = 0m

LoRaNetworkTest.**.radio.separateTransmissionParts = false
LoRaNetworkTest.**.radio.separateReceptionParts = false

**.ipv4Delayer.config = xmldoc("../cloudDelays.xml")
**.radio.radioMediumModule = "LoRaMedium"
**.LoRaMedium.pathLossType = "LoRaLogNormalShadowing"
#**.LoRaMedium.pathLossType = "LoRaPathLossOulu"
**.minInterferenceTime = 0s
**.displayAddresses = false

# cache features
# **.LoRaMedium.mediumLimitCacheType = "LoRaMediumCache"
# **.LoRaMedium.rangeFilter = "communicationRange"
# **.LoRaMedium.neighborCacheType = "LoRaNeighborCache"
# **.LoRaMedium.neighborCache.range = 546m
# **.LoRaMedium.neighborCache.refillPeriod = 3000s
**.numberOfNodes = 1000
**.numberOfGateways = 1
**.constraintAreaMaxX = 2376.0m
**.constraintAreaMaxY = 1090.0m
**.loRaGW[0].**.initialX = 544.00m
**.loRaGW[0].**.initialY = 544.00m
output-scalar-file = ../results/n1000-gw1-noADR-s${runnumber}.ini.sca
**.loRaNodes[0].**.initialX = 756.75m
**.loRaNodes[0].**.initialY = 475.93m
**.loRaNodes[1].**.initialX = 289.82m
**.loRaNodes[1].**.initialY = 362.58m
**.loRaNodes[2].**.initialX = 624.29m
**.loRaNodes[2].**.initialY = 663.75m
**.loRaNodes[3].**.initialX = 602.66m
**.loRaNodes[3].**.initialY = 478.45m
**.loRaNodes[4].**.initialX = 470.31m
**.loRaNodes[4].**.initialY = 270.77m
**.loRaNodes[5].**.initialX = 595.43m
**.loRaNodes[5].**.initialY = 534.16m
**.loRaNodes[6].**.initialX = 622.07m
**.loRaNodes[6].**.initialY = 867.74m
**.loRaNodes[7].**.initialX = 607.24m
**.loRaNodes[7].**.initialY = 686.21m
**.loRaNodes[8].**.initialX = 345.10m
**.loRaNodes[8].**.initialY = 512.81m
**.loRaNodes[9].**.initialX = 482.55m
**.loRaNodes[9].**.initialY = 775.88m
**.loRaNodes[10].**.initialX = 726.69m
**.loRaNodes[10].**.initialY = 763.41m
**.loRaNodes[11].**.initialX = 412.27m
**.loRaNodes[11].**.initialY = 690.86m
**.loRaNodes[12].**.initialX = 598.04m
**.loRaNodes[12].**.initialY = 303.50m
**.loRaNodes[13].**.initialX = 381.55m
**.loRaNodes[13].**.initialY = 529.43m
**.loRaNodes[14].**.initialX = 813.05m
**.loRaNodes[14].**.initialY = 624.83m
**.loRaNodes[15].**.initialX = 680.24m
**.loRaNodes[15].**.initialY = 793.76m
**.loRaNodes[16].**.initialX = 632.33m
**.loRaNodes[16].**.initialY = 514.61m
**.loRaNodes[17].**.initialX = 672.67m
**.loRaNodes[17].**.initialY = 209.20m
**.loRaNodes[18].**.initialX = 708.69m
**.loRaNodes[18].**.initialY = 660.01m
**.loRaNodes[19].**.initialX = 263.17m
**.loRaNodes[19].**.initialY = 654.88m
**.loRaNodes[20].**.initialX = 416.55m
**.loRaNodes[20].**.initialY = 547.86m
**.loRaNodes[21].**.initialX = 600.99m
**.loRaNodes[21].**.initialY = 507.49m
**.loRaNodes[22].**.initialX = 447.01m
**.loRaNodes[22].**.initialY = 385.67m
**.loRaNodes[23].**.initialX = 341.83m
**.loRaNodes[23].**.initialY = 518.37m
**.loRaNodes[24].**.initialX = 651.41m
**.loRaNodes[24].**.initialY = 791.59m
**.loRaNodes[25].**.initialX = 600.52m
**.loRaNodes[25].**.initialY = 189.07m
**.loRaNodes[26].**.initialX = 823.31m
**.loRaNodes[26].**.initialY = 326.86m
**.loRaNodes[27].**.initialX = 792.91m
**.loRaNodes[27].**.initialY = 410.96m
**.loRaNodes[28].**.initialX = 580.15m
**.loRaNodes[28].**.initialY = 646.39m
**.loRaNodes[29].**.initialX = 508.62m
**.loRaNodes[29].**.initialY = 613.09m
**.loRaNodes[30].**.initialX = 513.57m
**.loRaNodes[30].**.initialY = 769.51m
**.loRaNodes[31].**.initialX = 337.46m
**.loRaNodes[31].**.initialY = 804.29m
**.loRaNodes[32].**.initialX = 357.46m
**.loRaNodes[32].**.initialY = 492.72m
**.loRaNodes[33].**.initialX = 588.14m
**.loRaNodes[33].**.initialY = 414.28m
**.loRaNodes[34].**.initialX = 643.32m
**.loRaNodes[34].**.initialY = 535.80m
**.loRaNodes[35].**.initialX = 645.58m
**.loRaNodes[35].**.initialY = 848.24m
**.loRaNodes[36].**.initialX = 554.84m
**.loRaNodes[36].**.initialY = 519.14m
**.loRaNodes[37].**.initialX = 503.64m
**.loRaNodes[37].**.initialY = 239.79m
**.loRaNodes[38].**.initialX = 830.48m
**.loRaNodes[38].**.initialY = 687.81m
**.loRaNodes[39].**.initialX = 707.13m
**.loRaNodes[39].**.initialY = 689.41m
**.loRaNodes[40].**.initialX = 301.67m
**.loRaNodes[40].**.initialY = 306.80m
**.loRaNodes[41].**.initialX = 737.44m
**.loRaNodes[41].**.initialY = 625.64m
**.loRaNodes[42].**.initialX = 451.38m
**.loRaNodes[42].**.initialY = 725.25m
**.loRaNodes[43].**.initialX = 341.61m
**.loRaNodes[43].**.initialY = 306.85m
**.loRaNodes[44].**.initialX = 205.43m
**.loRaNodes[44].**.initialY = 603.72m
**.loRaNodes[45].**.initialX = 515.11m
**.loRaNodes[45].**.initialY = 421.13m
**.loRaNodes[46].**.initialX = 248.94m
**.loRaNodes[46].**.initialY = 424.43m
**.loRaNodes[47].**.initialX = 223.76m
**.loRaNodes[47].**.initialY = 556.49m
**.loRaNodes[48].**.initialX = 306.98m
**.loRaNodes[48].**.initialY = 660.04m
**.loRaNodes[49].**.initialX = 589.33m
**.loRaNodes[49].**.initialY = 580.50m
**.loRaNodes[50].**.initialX = 501.64m
**.loRaNodes[50].**.initialY = 495.08m
**.loRaNodes[51].**.initialX = 339.65m
**.loRaNodes[51].**.initialY = 532.98m
**.loRaNodes[52].**.initialX = 545.55m
**.loRaNodes[52].**.initialY = 891.72m
**.loRaNodes[53].**.initialX = 552.15m
**.loRaNodes[53].**.initialY = 310.32m
**.loRaNodes[54].**.initialX = 698.56m
**.loRaNodes[54].**.initialY = 625.19m
**.loRaNodes[55].**.initialX = 648.00m
**.loRaNodes[55].**.initialY = 710.69m
**.loRaNodes[56].**.initialX = 669.68m
**.loRaNodes[56].**.initialY = 215.27m
**.loRaNodes[57].**.initialX = 744.79m
**.loRaNodes[57].**.initialY = 334.07m
**.loRaNodes[58].**.initialX = 670.98m
**.loRaNodes[58].**.initialY = 845.57m
**.loRaNodes[59].**.initialX = 209.65m
**.loRaNodes[59].**.initialY = 459.62m
**.loRaNodes[60].**.initialX = 804.53m
**.loRaNodes[60].**.initialY = 344.76m
**.loRaNodes[61].**.initialX = 702.55m
**.loRaNodes[61].**.initialY = 675.25m
**.loRaNodes[62].**.initialX = 387.70m
**.loRaNodes[62].**.initialY = 621.05m
**.loRaNodes[63].**.initialX = 755.59m
**.loRaNodes[63].**.initialY = 290.61m
**.loRaNodes[64].**.initialX = 513.64m
**.loRaNodes[64].**.initialY = 541.95m
**.loRaNodes[65].**.initialX = 585.12m
**.loRaNodes[65].**.initialY = 776.20m
**.loRaNodes[66].**.initialX = 477.89m
**.loRaNodes[66].**.initialY = 651.70m
**.loRaNodes[67].**.initialX = 386.67m
**.loRaNodes[67].**.initialY = 861.59m
**.loRaNodes[68].**.initialX = 467.52m
**.loRaNodes[68].**.initialY = 292.47m
**.loRaNodes[69].**.initialX = 760.65m
**.loRaNodes[69].**.initialY = 505.18m
**.loRaNodes[70].**.initialX = 539.99m
**.loRaNodes[70].**.initialY = 902.06m
**.loRaNodes[71].**.initialX = 463.11m
**.loRaNodes[71].**.initialY = 788.34m
**.loRaNodes[72].**.initialX = 733.59m
**.loRaNodes[72].**.initialY = 588.75m
**.loRaNodes[73].**.initialX = 259.07m
**.loRaNodes[73].**.initialY = 539.20m
**.loRaNodes[74].**.initialX = 529.17m
**.loRaNodes[74].**.initialY = 625.48m
**.loRaNodes[75].**.initialX = 566.80m
**.loRaNodes[75].**.initialY = 891.11m
**.loRaNodes[76].**.initialX = 405.37m
**.loRaNodes[76].**.initialY = 553.20m
**.loRaNodes[77].**.initialX = 562.08m
**.loRaNodes[77].**.initialY = 905.92m
**.loRaNodes[78].**.initialX = 565.83m
**.loRaNodes[78].**.initialY = 245.56m
**.loRaNodes[79].**.initialX = 519.72m
**.loRaNodes[79].**.initialY = 367.73m
**.loRaNodes[80].**.initialX = 394.83m
**.loRaNodes[80].**.initialY = 380.46m
**.loRaNodes[81].**.initialX = 260.79m
**.loRaNodes[81].**.initialY = 479.25m
**.loRaNodes[82].**.initialX = 600.01m
**.loRaNodes[82].**.initialY = 449.70m
**.loRaNodes[83].**.initialX = 624.29m
**.loRaNodes[83].**.initialY = 734.50m
**.loRaNodes[84].**.initialX = 481.99m
**.loRaNodes[84].**.initialY = 504.16m
**.loRaNodes[85].**.initialX = 842.82m
**.loRaNodes[85].**.initialY = 575.26m
**.loRaNodes[86].**.initialX = 582.43m
**.loRaNodes[86].**.initialY = 802.35m
**.loRaNodes[87].**.initialX = 678.14m
**.loRaNodes[87].**.initialY = 804.69m
**.loRaNodes[88].**.initialX = 314.24m
**.loRaNodes[88].**.initialY = 742.15m
**.loRaNodes[89].**.initialX = 773.39m
**.loRaNodes[89].**.initialY = 812.65m
**.loRaNodes[90].**.initialX = 705.24m
**.loRaNodes[90].**.initialY = 683.43m
**.loRaNodes[91].**.initialX = 795.81m
**.loRaNodes[91].**.initialY = 299.49m
**.loRaNodes[92].**.initialX = 444.65m
**.loRaNodes[92].**.initialY = 387.49m
**.loRaNodes[93].**.initialX = 233.69m
**.loRaNodes[93].**.initialY = 431.84m
**.loRaNodes[94].**.initialX = 557.59m
**.loRaNodes[94].**.initialY = 809.29m
**.loRaNodes[95].**.initialX = 632.94m
**.loRaNodes[95].**.initialY = 476.97m
**.loRaNodes[96].**.initialX = 311.87m
**.loRaNodes[96].**.initialY = 286.95m
**.loRaNodes[97].**.initialX = 419.94m
**.loRaNodes[97].**.initialY = 716.56m
**.loRaNodes[98].**.initialX = 792.24m
**.loRaNodes[98].**.initialY = 356.67m
**.loRaNodes[99].**.initialX = 608.15m
**.loRaNodes[99].**.initialY = 206.26m
**.loRaNodes[100].**.initialX = 796.54m
**.loRaNodes[100].**.initialY = 691.51m
**.loRaNodes[101].**.initialX = 661.93m
**.loRaNodes[101].**.initialY = 456.67m
**.loRaNodes[102].**.initialX = 827.76m
**.loRaNodes[102].**.initialY = 560.42m
**.loRaNodes[103].**.initialX = 483.87m
**.loRaNodes[103].**.initialY = 444.48m
**.loRaNodes[104].**.initialX = 557.80m
**.loRaNodes[104].**.initialY = 566.00m
**.loRaNodes[105].**.initialX = 447.47m
**.loRaNodes[105].**.initialY = 291.44m
**.loRaNodes[106].**.initialX = 591.44m
**.loRaNodes[106].**.initialY = 834.87m
**.loRaNodes[107].**.initialX = 568.65m
**.loRaNodes[107].**.initialY = 851.04m
**.loRaNodes[108].**.initialX = 539.41m
**.loRaNodes[108].**.initialY = 335.84m
**.loRaNodes[109].**.initialX = 715.76m
**.loRaNodes[109].**.initialY = 305.15m
**.loRaNodes[110].**.initialX = 274.86m
**.loRaNodes[110].**.initialY = 420.83m
**.loRaNodes[111].**.initialX = 468.70m
**.loRaNodes[111].**.initialY = 626.52m
**.loRaNodes[112].**.initialX = 551.10m
**.loRaNodes[112].**.initialY = 731.83m
**.loRaNodes[113].**.initialX = 262.17m
**.loRaNodes[113].**.initialY = 768.06m
**.loRaNodes[114].**.initialX = 309.82m
**.loRaNodes[114].**.initialY = 291.02m
**.loRaNodes[115].**.initialX = 218.64m
**.loRaNodes[115].**.initialY = 538.61m
**.loRaNodes[116].**.initialX = 267.07m
**.loRaNodes[116].**.initialY = 557.03m
**.loRaNodes[117].**.initialX = 516.22m
**.loRaNodes[117].**.initialY = 385.13m
**.loRaNodes[118].**.initialX = 735.15m
**.loRaNodes[118].**.initialY = 573.43m
**.loRaNodes[119].**.initialX = 673.65m
**.loRaNodes[119].**.initialY = 807.03m
**.loRaNodes[120].**.initialX = 883.24m
**.loRaNodes[120].**.initialY = 442.96m
**.loRaNodes[121].**.initialX = 304.76m
**.loRaNodes[121].**.initialY = 798.26m
**.loRaNodes[122].**.initialX = 584.85m
**.loRaNodes[122].**.initialY = 524.25m
**.loRaNodes[123].**.initialX = 777.62m
**.loRaNodes[123].**.initialY = 494.32m
**.loRaNodes[124].**.initialX = 760.05m
**.loRaNodes[124].**.initialY = 258.16m
**.loRaNodes[125].**.initialX = 395.35m
**.loRaNodes[125].**.initialY = 674.89m
**.loRaNodes[126].**.initialX = 406.54m
**.loRaNodes[126].**.initialY = 851.41m
**.loRaNodes[127].**.initialX = 403.20m
**.loRaNodes[127].**.initialY = 491.50m
**.loRaNodes[128].**.initialX = 426.53m
**.loRaNodes[128].**.initialY = 210.96m
**.loRaNodes[129].**.initialX = 769.79m
**.loRaNodes[129].**.initialY = 702.00m
**.loRaNodes[130].**.initialX = 829.68m
**.loRaNodes[130].**.initialY = 526.12m
**.loRaNodes[131].**.initialX = 408.29m
**.loRaNodes[131].**.initialY = 528.30m
**.loRaNodes[132].**.initialX = 524.18m
**.loRaNodes[132].**.initialY = 202.69m
**.loRaNodes[133].**.initialX = 454.37m
**.loRaNodes[133].**.initialY = 252.75m
**.loRaNodes[134].**.initialX = 484.81m
**.loRaNodes[134].**.initialY = 754.69m
**.loRaNodes[135].**.initialX = 665.10m
**.loRaNodes[135].**.initialY = 238.78m
**.loRaNodes[136].**.initialX = 834.62m
**.loRaNodes[136].**.initialY = 367.77m
**.loRaNodes[137].**.initialX = 283.01m
**.loRaNodes[137].**.initialY = 541.51m
**.loRaNodes[138].**.initialX = 352.25m
**.loRaNodes[138].**.initialY = 280.21m
**.loRaNodes[139].**.initialX = 630.78m
**.loRaNodes[139].**.initialY = 250.76m
**.loRaNodes[140].**.initialX = 363.17m
**.loRaNodes[140].**.initialY = 837.04m
**.loRaNodes[141].**.initialX = 729.81m
**.loRaNodes[141].**.initialY = 668.55m
**.loRaNodes[142].**.initialX = 814.52m
**.loRaNodes[142].**.initialY = 606.15m
**.loRaNodes[143].**.initialX = 303.83m
**.loRaNodes[143].**.initialY = 478.06m
**.loRaNodes[144].**.initialX = 379.58m
**.loRaNodes[144].**.initialY = 438.45m
**.loRaNodes[145].**.initialX = 606.00m
**.loRaNodes[145].**.initialY = 558.82m
**.loRaNodes[146].**.initialX = 332.68m
**.loRaNodes[146].**.initialY = 798.82m
**.loRaNodes[147].**.initialX = 415.16m
**.loRaNodes[147].**.initialY = 525.88m
**.loRaNodes[148].**.initialX = 612.25m
**.loRaNodes[148].**.initialY = 856.93m
**.loRaNodes[149].**.initialX = 791.63m
**.loRaNodes[149].**.initialY = 691.18m
**.loRaNodes[150].**.initialX = 462.63m
**.loRaNodes[150].**.initialY = 527.76m
**.loRaNodes[151].**.initialX = 369.61m
**.loRaNodes[151].**.initialY = 340.00m
**.loRaNodes[152].**.initialX = 851.45m
**.loRaNodes[152].**.initialY = 496.99m
**.loRaNodes[153].**.initialX = 427.94m
**.loRaNodes[153].**.initialY = 779.19m
**.loRaNodes[154].**.initialX = 501.52m
**.loRaNodes[154].**.initialY = 866.70m
**.loRaNodes[155].**.initialX = 757.04m
**.loRaNodes[155].**.initialY = 658.44m
**.loRaNodes[156].**.initialX = 600.52m
**.loRaNodes[156].**.initialY = 530.49m
**.loRaNodes[157].**.initialX = 432.88m
**.loRaNodes[157].**.initialY = 229.32m
**.loRaNodes[158].**.initialX = 652.19m
**.loRaNodes[158].**.initialY = 750.83m
**.loRaNodes[159].**.initialX = 543.78m
**.loRaNodes[159].**.initialY = 688.37m
**.loRaNodes[160].**.initialX = 484.32m
**.loRaNodes[160].**.initialY = 280.16m
**.loRaNodes[161].**.initialX = 488.55m
**.loRaNodes[161].**.initialY = 835.34m
**.loRaNodes[162].**.initialX = 516.90m
**.loRaNodes[162].**.initialY = 188.36m
**.loRaNodes[163].**.initialX = 336.49m
**.loRaNodes[163].**.initialY = 368.52m
**.loRaNodes[164].**.initialX = 547.37m
**.loRaNodes[164].**.initialY = 780.41m
**.loRaNodes[165].**.initialX = 554.73m
**.loRaNodes[165].**.initialY = 326.49m
**.loRaNodes[166].**.initialX = 576.65m
**.loRaNodes[166].**.initialY = 573.18m
**.loRaNodes[167].**.initialX = 619.74m
**.loRaNodes[167].**.initialY = 563.82m
**.loRaNodes[168].**.initialX = 447.08m
**.loRaNodes[168].**.initialY = 220.62m
**.loRaNodes[169].**.initialX = 749.33m
**.loRaNodes[169].**.initialY = 688.95m
**.loRaNodes[170].**.initialX = 291.63m
**.loRaNodes[170].**.initialY = 586.46m
**.loRaNodes[171].**.initialX = 405.03m
**.loRaNodes[171].**.initialY = 605.33m
**.loRaNodes[172].**.initialX = 371.98m
**.loRaNodes[172].**.initialY = 390.70m
**.loRaNodes[173].**.initialX = 823.17m
**.loRaNodes[173].**.initialY = 625.69m
**.loRaNodes[174].**.initialX = 386.89m
**.loRaNodes[174].**.initialY = 385.18m
**.loRaNodes[175].**.initialX = 704.59m
**.loRaNodes[175].**.initialY = 340.92m
**.loRaNodes[176].**.initialX = 698.09m
**.loRaNodes[176].**.initialY = 797.00m
**.loRaNodes[177].**.initialX = 483.34m
**.loRaNodes[177].**.initialY = 468.36m
**.loRaNodes[178].**.initialX = 492.99m
**.loRaNodes[178].**.initialY = 513.50m
**.loRaNodes[179].**.initialX = 229.13m
**.loRaNodes[179].**.initialY = 382.38m
**.loRaNodes[180].**.initialX = 402.70m
**.loRaNodes[180].**.initialY = 365.82m
**.loRaNodes[181].**.initialX = 307.00m
**.loRaNodes[181].**.initialY = 474.15m
**.loRaNodes[182].**.initialX = 276.73m
**.loRaNodes[182].**.initialY = 776.36m
**.loRaNodes[183].**.initialX = 840.41m
**.loRaNodes[183].**.initialY = 343.51m
**.loRaNodes[184].**.initialX = 690.41m
**.loRaNodes[184].**.initialY = 612.18m
**.loRaNodes[185].**.initialX = 659.11m
**.loRaNodes[185].**.initialY = 557.24m
**.loRaNodes[186].**.initialX = 498.17m
**.loRaNodes[186].**.initialY = 441.62m
**.loRaNodes[187].**.initialX = 503.10m
**.loRaNodes[187].**.initialY = 632.38m
**.loRaNodes[188].**.initialX = 875.92m
**.loRaNodes[188].**.initialY = 592.88m
**.loRaNodes[189].**.initialX = 478.51m
**.loRaNodes[189].**.initialY = 866.83m
**.loRaNodes[190].**.initialX = 502.79m
**.loRaNodes[190].**.initialY = 425.49m
**.loRaNodes[191].**.initialX = 751.84m
**.loRaNodes[191].**.initialY = 342.52m
**.loRaNodes[192].**.initialX = 647.19m
**.loRaNodes[192].**.initialY = 248.56m
**.loRaNodes[193].**.initialX = 629.34m
**.loRaNodes[193].**.initialY = 718.04m
**.loRaNodes[194].**.initialX = 654.54m
**.loRaNodes[194].**.initialY = 247.72m
**.loRaNodes[195].**.initialX = 234.13m
**.loRaNodes[195].**.initialY = 733.58m
**.loRaNodes[196].**.initialX = 580.78m
**.loRaNodes[196].**.initialY = 324.43m
**.loRaNodes[197].**.initialX = 737.23m
**.loRaNodes[197].**.initialY = 454.19m
**.loRaNodes[198].**.initialX = 238.93m
**.loRaNodes[198].**.initialY = 689.92m
**.loRaNodes[199].**.initialX = 553.03m
**.loRaNodes[199].**.initialY = 227.85m
**.loRaNodes[200].**.initialX = 639.92m
**.loRaNodes[200].**.initialY = 476.63m
**.loRaNodes[201].**.initialX = 663.90m
**.loRaNodes[201].**.initialY = 313.92m
**.loRaNodes[202].**.initialX = 707.58m
**.loRaNodes[202].**.initialY = 417.98m
**.loRaNodes[203].**.initialX = 771.18m
**.loRaNodes[203].**.initialY = 559.49m
**.loRaNodes[204].**.initialX = 835.72m
**.loRaNodes[204].**.initialY = 732.46m
**.loRaNodes[205].**.initialX = 740.18m
**.loRaNodes[205].**.initialY = 480.34m
**.loRaNodes[206].**.initialX = 225.35m
**.loRaNodes[206].**.initialY = 385.56m
**.loRaNodes[207].**.initialX = 268.96m
**.loRaNodes[207].**.initialY = 636.35m
**.loRaNodes[208].**.initialX = 450.24m
**.loRaNodes[208].**.initialY = 717.99m
**.loRaNodes[209].**.initialX = 548.47m
**.loRaNodes[209].**.initialY = 244.71m
**.loRaNodes[210].**.initialX = 624.01m
**.loRaNodes[210].**.initialY = 229.27m
**.loRaNodes[211].**.initialX = 433.84m
**.loRaNodes[211].**.initialY = 547.86m
**.loRaNodes[212].**.initialX = 460.64m
**.loRaNodes[212].**.initialY = 517.19m
**.loRaNodes[213].**.initialX = 728.63m
**.loRaNodes[213].**.initialY = 386.72m
**.loRaNodes[214].**.initialX = 704.32m
**.loRaNodes[214].**.initialY = 689.08m
**.loRaNodes[215].**.initialX = 553.97m
**.loRaNodes[215].**.initialY = 406.34m
**.loRaNodes[216].**.initialX = 774.98m
**.loRaNodes[216].**.initialY = 714.32m
**.loRaNodes[217].**.initialX = 511.90m
**.loRaNodes[217].**.initialY = 443.13m
**.loRaNodes[218].**.initialX = 586.96m
**.loRaNodes[218].**.initialY = 455.41m
**.loRaNodes[219].**.initialX = 811.54m
**.loRaNodes[219].**.initialY = 694.05m
**.loRaNodes[220].**.initialX = 649.94m
**.loRaNodes[220].**.initialY = 535.09m
**.loRaNodes[221].**.initialX = 390.49m
**.loRaNodes[221].**.initialY = 706.16m
**.loRaNodes[222].**.initialX = 855.16m
**.loRaNodes[222].**.initialY = 436.92m
**.loRaNodes[223].**.initialX = 551.69m
**.loRaNodes[223].**.initialY = 181.65m
**.loRaNodes[224].**.initialX = 737.78m
**.loRaNodes[224].**.initialY = 656.15m
**.loRaNodes[225].**.initialX = 243.65m
**.loRaNodes[225].**.initialY = 428.55m
**.loRaNodes[226].**.initialX = 741.75m
**.loRaNodes[226].**.initialY = 412.05m
**.loRaNodes[227].**.initialX = 422.42m
**.loRaNodes[227].**.initialY = 549.64m
**.loRaNodes[228].**.initialX = 505.86m
**.loRaNodes[228].**.initialY = 551.61m
**.loRaNodes[229].**.initialX = 607.57m
**.loRaNodes[229].**.initialY = 602.82m
**.loRaNodes[230].**.initialX = 469.95m
**.loRaNodes[230].**.initialY = 443.13m
**.loRaNodes[231].**.initialX = 271.01m
**.loRaNodes[231].**.initialY = 386.31m
**.loRaNodes[232].**.initialX = 291.04m
**.loRaNodes[232].**.initialY = 797.37m
**.loRaNodes[233].**.initialX = 676.30m
**.loRaNodes[233].**.initialY = 400.61m
**.loRaNodes[234].**.initialX = 712.01m
**.loRaNodes[234].**.initialY = 504.47m
**.loRaNodes[235].**.initialX = 583.52m
**.loRaNodes[235].**.initialY = 536.43m
**.loRaNodes[236].**.initialX = 602.77m
**.loRaNodes[236].**.initialY = 496.09m
**.loRaNodes[237].**.initialX = 808.89m
**.loRaNodes[237].**.initialY = 532.28m
**.loRaNodes[238].**.initialX = 450.47m
**.loRaNodes[238].**.initialY = 511.09m
**.loRaNodes[239].**.initialX = 188.42m
**.loRaNodes[239].**.initialY = 492.03m
**.loRaNodes[240].**.initialX = 447.19m
**.loRaNodes[240].**.initialY = 271.09m
**.loRaNodes[241].**.initialX = 372.81m
**.loRaNodes[241].**.initialY = 367.22m
**.loRaNodes[242].**.initialX = 770.91m
**.loRaNodes[242].**.initialY = 381.65m
**.loRaNodes[243].**.initialX = 528.96m
**.loRaNodes[243].**.initialY = 620.34m
**.loRaNodes[244].**.initialX = 818.55m
**.loRaNodes[244].**.initialY = 317.64m
**.loRaNodes[245].**.initialX = 364.53m
**.loRaNodes[245].**.initialY = 375.19m
**.loRaNodes[246].**.initialX = 616.87m
**.loRaNodes[246].**.initialY = 721.89m
**.loRaNodes[247].**.initialX = 393.70m
**.loRaNodes[247].**.initialY = 741.96m
**.loRaNodes[248].**.initialX = 790.25m
**.loRaNodes[248].**.initialY = 674.85m
**.loRaNodes[249].**.initialX = 902.95m
**.loRaNodes[249].**.initialY = 512.82m
**.loRaNodes[250].**.initialX = 246.83m
**.loRaNodes[250].**.initialY = 475.42m
**.loRaNodes[251].**.initialX = 623.23m
**.loRaNodes[251].**.initialY = 357.03m
**.loRaNodes[252].**.initialX = 701.62m
**.loRaNodes[252].**.initialY = 801.64m
**.loRaNodes[253].**.initialX = 697.33m
**.loRaNodes[253].**.initialY = 231.19m
**.loRaNodes[254].**.initialX = 489.94m
**.loRaNodes[254].**.initialY = 192.41m
**.loRaNodes[255].**.initialX = 295.02m
**.loRaNodes[255].**.initialY = 684.48m
**.loRaNodes[256].**.initialX = 778.88m
**.loRaNodes[256].**.initialY = 281.14m
**.loRaNodes[257].**.initialX = 620.55m
**.loRaNodes[257].**.initialY = 556.80m
**.loRaNodes[258].**.initialX = 627.17m
**.loRaNodes[258].**.initialY = 336.06m
**.loRaNodes[259].**.initialX = 756.40m
**.loRaNodes[259].**.initialY = 837.96m
**.loRaNodes[260].**.initialX = 337.84m
**.loRaNodes[260].**.initialY = 735.44m
**.loRaNodes[261].**.initialX = 740.64m
**.loRaNodes[261].**.initialY = 243.08m
**.loRaNodes[262].**.initialX = 216.25m
**.loRaNodes[262].**.initialY = 609.32m
**.loRaNodes[263].**.initialX = 509.55m
**.loRaNodes[263].**.initialY = 776.55m
**.loRaNodes[264].**.initialX = 601.20m
**.loRaNodes[264].**.initialY = 478.89m
**.loRaNodes[265].**.initialX = 873.09m
**.loRaNodes[265].**.initialY = 543.42m
**.loRaNodes[266].**.initialX = 201.49m
**.loRaNodes[266].**.initialY = 419.64m
**.loRaNodes[267].**.initialX = 844.99m
**.loRaNodes[267].**.initialY = 435.14m
**.loRaNodes[268].**.initialX = 549.61m
**.loRaNodes[268].**.initialY = 880.40m
**.loRaNodes[269].**.initialX = 712.65m
**.loRaNodes[269].**.initialY = 721.71m
**.loRaNodes[270].**.initialX = 263.92m
**.loRaNodes[270].**.initialY = 323.42m
**.loRaNodes[271].**.initialX = 461.56m
**.loRaNodes[271].**.initialY = 390.17m
**.loRaNodes[272].**.initialX = 363.64m
**.loRaNodes[272].**.initialY = 767.21m
**.loRaNodes[273].**.initialX = 485.81m
**.loRaNodes[273].**.initialY = 435.63m
**.loRaNodes[274].**.initialX = 580.80m
**.loRaNodes[274].**.initialY = 283.30m
**.loRaNodes[275].**.initialX = 701.64m
**.loRaNodes[275].**.initialY = 333.17m
**.loRaNodes[276].**.initialX = 292.47m
**.loRaNodes[276].**.initialY = 442.70m
**.loRaNodes[277].**.initialX = 263.19m
**.loRaNodes[277].**.initialY = 738.78m
**.loRaNodes[278].**.initialX = 675.44m
**.loRaNodes[278].**.initialY = 568.03m
**.loRaNodes[279].**.initialX = 313.21m
**.loRaNodes[279].**.initialY = 326.43m
**.loRaNodes[280].**.initialX = 614.63m
**.loRaNodes[280].**.initialY = 842.01m
**.loRaNodes[281].**.initialX = 678.23m
**.loRaNodes[281].**.initialY = 556.30m
**.loRaNodes[282].**.initialX = 361.47m
**.loRaNodes[282].**.initialY = 428.29m
**.loRaNodes[283].**.initialX = 332.82m
**.loRaNodes[283].**.initialY = 631.51m
**.loRaNodes[284].**.initialX = 343.09m
**.loRaNodes[284].**.initialY = 827.00m
**.loRaNodes[285].**.initialX = 598.92m
**.loRaNodes[285].**.initialY = 288.15m
**.loRaNodes[286].**.initialX = 378.53m
**.loRaNodes[286].**.initialY = 384.48m
**.loRaNodes[287].**.initialX = 866.05m
**.loRaNodes[287].**.initialY = 438.29m
**.loRaNodes[288].**.initialX = 669.35m
**.loRaNodes[288].**.initialY = 481.70m
**.loRaNodes[289].**.initialX = 530.74m
**.loRaNodes[289].**.initialY = 799.71m
**.loRaNodes[290].**.initialX = 789.38m
**.loRaNodes[290].**.initialY = 513.05m
**.loRaNodes[291].**.initialX = 422.35m
**.loRaNodes[291].**.initialY = 769.45m
**.loRaNodes[292].**.initialX = 561.97m
**.loRaNodes[292].**.initialY = 833.93m
**.loRaNodes[293].**.initialX = 613.33m
**.loRaNodes[293].**.initialY = 616.80m
**.loRaNodes[294].**.initialX = 619.50m
**.loRaNodes[294].**.initialY = 650.58m
**.loRaNodes[295].**.initialX = 457.89m
**.loRaNodes[295].**.initialY = 438.74m
**.loRaNodes[296].**.initialX = 455.97m
**.loRaNodes[296].**.initialY = 672.38m
**.loRaNodes[297].**.initialX = 202.96m
**.loRaNodes[297].**.initialY = 600.30m
**.loRaNodes[298].**.initialX = 683.84m
**.loRaNodes[298].**.initialY = 807.40m
**.loRaNodes[299].**.initialX = 698.81m
**.loRaNodes[299].**.initialY = 584.65m
**.loRaNodes[300].**.initialX = 517.20m
**.loRaNodes[300].**.initialY = 691.61m
**.loRaNodes[301].**.initialX = 674.33m
**.loRaNodes[301].**.initialY = 625.22m
**.loRaNodes[302].**.initialX = 421.06m
**.loRaNodes[302].**.initialY = 574.93m
**.loRaNodes[303].**.initialX = 434.93m
**.loRaNodes[303].**.initialY = 668.87m
**.loRaNodes[304].**.initialX = 449.26m
**.loRaNodes[304].**.initialY = 302.98m
**.loRaNodes[305].**.initialX = 566.11m
**.loRaNodes[305].**.initialY = 475.09m
**.loRaNodes[306].**.initialX = 795.90m
**.loRaNodes[306].**.initialY = 686.13m
**.loRaNodes[307].**.initialX = 843.85m
**.loRaNodes[307].**.initialY = 381.29m
**.loRaNodes[308].**.initialX = 528.84m
**.loRaNodes[308].**.initialY = 632.92m
**.loRaNodes[309].**.initialX = 540.42m
**.loRaNodes[309].**.initialY = 216.29m
**.loRaNodes[310].**.initialX = 583.61m
**.loRaNodes[310].**.initialY = 695.70m
**.loRaNodes[311].**.initialX = 322.89m
**.loRaNodes[311].**.initialY = 565.57m
**.loRaNodes[312].**.initialX = 348.97m
**.loRaNodes[312].**.initialY = 754.55m
**.loRaNodes[313].**.initialX = 540.06m
**.loRaNodes[313].**.initialY = 295.80m
**.loRaNodes[314].**.initialX = 542.93m
**.loRaNodes[314].**.initialY = 613.90m
**.loRaNodes[315].**.initialX = 787.83m
**.loRaNodes[315].**.initialY = 355.37m
**.loRaNodes[316].**.initialX = 288.21m
**.loRaNodes[316].**.initialY = 491.68m
**.loRaNodes[317].**.initialX = 430.97m
**.loRaNodes[317].**.initialY = 582.77m
**.loRaNodes[318].**.initialX = 556.60m
**.loRaNodes[318].**.initialY = 810.08m
**.loRaNodes[319].**.initialX = 408.17m
**.loRaNodes[319].**.initialY = 675.99m
**.loRaNodes[320].**.initialX = 521.37m
**.loRaNodes[320].**.initialY = 590.50m
**.loRaNodes[321].**.initialX = 465.47m
**.loRaNodes[321].**.initialY = 692.33m
**.loRaNodes[322].**.initialX = 641.59m
**.loRaNodes[322].**.initialY = 463.81m
**.loRaNodes[323].**.initialX = 422.83m
**.loRaNodes[323].**.initialY = 290.23m
**.loRaNodes[324].**.initialX = 219.77m
**.loRaNodes[324].**.initialY = 547.17m
**.loRaNodes[325].**.initialX = 439.30m
**.loRaNodes[325].**.initialY = 519.14m
**.loRaNodes[326].**.initialX = 535.99m
**.loRaNodes[326].**.initialY = 264.50m
**.loRaNodes[327].**.initialX = 710.80m
**.loRaNodes[327].**.initialY = 716.30m
**.loRaNodes[328].**.initialX = 417.18m
**.loRaNodes[328].**.initialY = 691.39m
**.loRaNodes[329].**.initialX = 279.19m
**.loRaNodes[329].**.initialY = 417.80m
**.loRaNodes[330].**.initialX = 761.03m
**.loRaNodes[330].**.initialY = 525.57m
**.loRaNodes[331].**.initialX = 566.78m
**.loRaNodes[331].**.initialY = 827.17m
**.loRaNodes[332].**.initialX = 610.74m
**.loRaNodes[332].**.initialY = 639.42m
**.loRaNodes[333].**.initialX = 640.34m
**.loRaNodes[333].**.initialY = 697.25m
**.loRaNodes[334].**.initialX = 509.52m
**.loRaNodes[334].**.initialY = 697.84m
**.loRaNodes[335].**.initialX = 665.11m
**.loRaNodes[335].**.initialY = 452.19m
**.loRaNodes[336].**.initialX = 441.84m
**.loRaNodes[336].**.initialY = 528.14m
**.loRaNodes[337].**.initialX = 776.40m
**.loRaNodes[337].**.initialY = 518.16m
**.loRaNodes[338].**.initialX = 446.14m
**.loRaNodes[338].**.initialY = 617.14m
**.loRaNodes[339].**.initialX = 782.52m
**.loRaNodes[339].**.initialY = 275.18m
**.loRaNodes[340].**.initialX = 527.62m
**.loRaNodes[340].**.initialY = 873.52m
**.loRaNodes[341].**.initialX = 470.19m
**.loRaNodes[341].**.initialY = 412.40m
**.loRaNodes[342].**.initialX = 214.27m
**.loRaNodes[342].**.initialY = 421.15m
**.loRaNodes[343].**.initialX = 492.33m