#
# This ini file runs a a different application on the same network, NClients.
# It models large file transfers, using TcpSessionApp+TcpSinkApp.
#
# To try, type NClients -f filetransfer.ini
#

[Config Filetransfer]
network = NClients

sim-time-limit = 50s

# number of client computers
*.n = 5

# tcp apps
**.cli[*].numApps = 1
**.cli[*].app[*].typename = "TcpSessionApp"
**.cli[*].app[0].active = true
**.cli[*].app[0].localAddress = ""
**.cli[*].app[0].localPort = -1
**.cli[*].app[0].connectAddress = "srv"
**.cli[*].app[0].connectPort = 1000
**.cli[*].app[0].tOpen = exponential(0.1s)
**.cli[*].app[0].tSend = 0s
**.cli[*].app[0].sendBytes = 1MiB
**.cli[*].app[0].sendScript = ""
**.cli[*].app[0].tClose = 0s

**.srv.numApps = 1
**.srv.app[*].typename = "TcpSinkApp"
**.srv.app[0].localAddress = ""
**.srv.app[0].localPort = 1000

# NIC configuration
**.ppp[*].queue.typename = "DropTailQueue" # in routers
**.ppp[*].queue.packetCapacity = 10  # in routers




