include omnetpp.ini

[Run 1]
sim-time-limit = 100s
fingerprint = "c56c-c9ec"