
[General]
sim-time-limit = 100s
fingerprint = "b9b9-68c1"

include filetransfer.ini
