
[General]
sim-time-limit = 100s
fingerprint = "c56c-c9ec"

include omnetpp.ini
