include filetransfer.ini

[Run 1]
sim-time-limit = 100s
fingerprint = "b9b9-68c1"