#
# This ini file runs a a different application on the same network, NClients.
# It models a web user (HTTP 1.0), browsing single-document pages (i.e. those
# without images, applets, frames, etc). It uses TcpBasicClientApp and
# TcpGenericServerApp.
#
# To try, type NClients -f basicHTTP.ini
#

[General]
network = NClients2

sim-time-limit = 1000000s

# number of client computers
*.hostsPerRouter=20 # Number of nodes per star network
*.numRouters=3      # Number of star networks present in example

# tcp apps
**.cli*[*].numApps = 1
**.cli*[*].app[*].typename = "TcpBasicClientApp"
**.cli*[*].app[0].localAddress = ""
**.cli*[*].app[0].localPort = -1
**.cli*[*].app[0].connectAddress = "srv"
**.cli*[*].app[0].connectPort = 80

**.cli*[*].app[0].startTime = exponential(5s)
*.cli*[*].app[0].numRequestsPerSession = ${1,2}
**.cli*[*].app[0].requestLength = intWithUnit(truncnormal(350B,20B))
**.cli*[*].app[0].replyLength = intWithUnit(exponential(2000B))
**.cli*[*].app[0].thinkTime = truncnormal(2s,3s)
**.cli*[*].app[0].idleInterval = truncnormal(1s,3s)
**.cli*[*].app[0].reconnectInterval = 30s

**.srv.numApps = 1
**.srv.app[*].typename = "TcpGenericServerApp"
# Another choice of server app (it does the same as TcpGenericServerApp):
#  **.srv.app[*].typename="TcpServerHostApp"
#  **.srv.app[0].serverThreadClass="TcpGenericServerThread"
**.srv.app[0].localAddress = ""
**.srv.app[0].localPort = 80
**.srv.app[0].replyDelay = 0s

# tcp settings
**.app[*].dataTransferMode = "object"

# NIC configuration
**.ppp[*].ppp.queue.typename = "DropTailQueue" # in routers
**.ppp[*].ppp.queue.packetCapacity = 10  # in routers
