#
# This ini file runs Telnet sessions on the NClients network, using
# TelnetApp+TCPGenericSrvApp.
#
# See also fileTransfer.ini and basicHTTP.ini for different kinds of
# network traffic.
#

[Config inet__inet]
description = "inet_TCP <---> inet_TCP"
# setting TCP stack implementation
**.srv*.tcpType = "TCP"
**.cli*.tcpType = "TCP"
#**.srv.numPcapRecorders = 1
#**.srv.pcapRecorder[0].pcapFile = "results/inet_srv.pcap"

[Config lwip__lwip]
description = "TCP_lwIP <---> TCP_lwIP"
# setting TCP stack implementation
**.srv*.tcpType = "TCP_lwIP"
**.cli*.tcpType = "TCP_lwIP"
#**.srv.numPcapRecorders = 1
#**.srv.pcapRecorder[0].pcapFile = "results/lwip_srv.pcap"

[Config lwip__inet]
description = "TCP_lwIP <---> inet_TCP"
# setting TCP stack implementation
**.srv*.tcpType = "TCP_lwIP"
**.cli*.tcpType = "TCP"

[Config inet__lwip]
description = "inet_TCP <---> TCP_lwIP"
# setting TCP stack implementation
**.srv*.tcpType = "TCP"
**.cli*.tcpType = "TCP_lwIP"

[General]
network = NClients
#debug-on-errors = true
tkenv-plugin-path = ../../../etc/plugins

sim-time-limit = 1000000s

# number of client computers
*.n = 4

# tcp apps
**.cli[*].numApps = 1
**.cli[*].app[0].typename = "TelnetApp"
**.cli[*].app[0].localAddress = ""
**.cli[*].app[0].localPort = -1
**.cli[*].app[0].connectAddress = "srv"
**.cli[*].app[0].connectPort = 1000

**.cli[*].app[0].startTime = exponential(5s)
**.cli[*].app[0].numCommands = exponential(10)
**.cli[*].app[0].commandLength = exponential(10B)
**.cli[*].app[0].keyPressDelay = exponential(0.1s)
**.cli[*].app[0].commandOutputLength = exponential(40B)
**.cli[*].app[0].thinkTime = truncnormal(2s,3s)
**.cli[*].app[0].idleInterval = truncnormal(3600s,1200s)
**.cli[*].app[0].reconnectInterval = 30s
**.cli[*].app[0].dataTransferMode = "object"

**.srv.numApps = 1
**.srv.app[0].typename = "TCPGenericSrvApp"
**.srv.app[0].localAddress = ""
**.srv.app[0].localPort = 1000
**.srv.app[0].replyDelay = 0

# NIC configuration
**.ppp[*].queueType = "DropTailQueue" # in routers
**.ppp[*].queue.frameCapacity = 10    # in routers

# turn on throughput stat
**.channel.throughput.result-recording-modes=+last
