[General]
sim-time-limit = 30s
#debug-on-errors = true
output-scalar-file = results.sca
output-scalar-precision = 5

cmdenv-express-mode = true
cmdenv-event-banners = false

tkenv-plugin-path = ../../../etc/plugins

**.app[0].**.scalar-recording = true
**.bgp.**.scalar-recording = true
**.scalar-recording = false
**.vector-recording = false

# ip settings
**.ip.procDelay = 10us

# NIC configuration
**.eth[*].queue.typename = "EtherQosQueue"
**.eth[*].queue.dataQueue.typename = "DropTailQueue"
**.eth[*].queue.dataQueue.frameCapacity = 100

#tcp settings
**.tcp.mss = 1024
**.tcp.advertisedWindow = 14336
#**.tcp.sendQueueClass = "TCPMsgBasedSendQueue"
#**.tcp.receiveQueueClass = "TCPMsgBasedRcvQueue"
**.tcp.tcpAlgorithmClass = "TcpReno"
**.tcp.recordStats = false

# OSPF configuration
**.ospfConfig = xmldoc("OSPFConfig.xml")

# bgp settings
**.bgpConfig = xmldoc("BGPConfig.xml")


[Config config1]
description = "BGP, Update Msg "
network = BGPTest

**.A.snifferIn.config = xmldoc("A_snifferIn.xml")
**.A.snifferOut.config = xmldoc("A_snifferOut.xml")

**.B.snifferIn.config = xmldoc("B_snifferIn.xml")
**.B.snifferOut.config = xmldoc("B_snifferOut.xml")

# UDPApp parameters
*.H*.numApps = 1
**.app[0].messageLength = 32 bytes
**.app[0].sendInterval = 2s
**.app[0].destPort = 5678

**.H1.app[0].typename = "UdpBasicApp"
**.H1.app[0].localPort = 1234
**.H1.app[0].destAddresses = "192.168.2.1"

**.H2.app[0].typename="UdpSink"
**.H2.app[0].localPort = 5678

