%description:
Tests clock oscillator compensation factor with using tick events.

%includes:
#include "inet/clock/model/SettableClock.h"
#include "inet/clock/oscillator/ConstantDriftOscillator.h"

using namespace omnetpp;
using namespace inet;

%file: TestNetwork.ned

import inet.clock.model.SettableClock;

network TestNetwork
{
    submodules:
        test: Test;
        clock: SettableClock;
}

%inifile: omnetpp.ini
[General]
ned-path = .;../../../../src;../../lib
network = TestNetwork
sim-time-limit = 0.2s

*.clock.useFutureEventSet = false
*.clock.oscillator.nominalTickLength = 1us
*.clock.oscillator.tickSchedulingPriority = -1

%activity:

auto clock = check_and_cast<SettableClock *>(cSimulation::getActiveSimulation()->getModuleByPath("clock"));
wait(0.1);
clock->setClockTime(0.1, ppm(1000000), false); // the clock assumes that the oscillator goes twice as fast as the nominal speed

%# remove formatting
%subst: /\x1B\[[0-9;]*m//

%contains: stdout
** Event #2  t=0.000001  0% completed  (0% total)   TestNetwork.clock.oscillator (ConstantDriftOscillator, id=4)
Handling tick, numTicks = 1.
Oscillator tick processed, clockTime = 0.000001.
** Event #3  t=0.000002  0% completed  (0% total)   TestNetwork.clock.oscillator (ConstantDriftOscillator, id=4)
Handling tick, numTicks = 2.
Oscillator tick processed, clockTime = 0.000002.

%contains: stdout
** Event #100000  t=0.099999  49% completed  (49% total)   TestNetwork.clock.oscillator (ConstantDriftOscillator, id=4)
Handling tick, numTicks = 99999.
Oscillator tick processed, clockTime = 0.099999.
** Event #100001  t=0.1  50% completed  (50% total)   TestNetwork.clock.oscillator (ConstantDriftOscillator, id=4)
Handling tick, numTicks = 100000.
Oscillator tick processed, clockTime = 0.1.
** Event #100002  t=0.1  50% completed  (50% total)   TestNetwork.test (Test, id=2)
Setting clock time from 0.1 to 0.1 at simtime 0.1.
** Event #100003  t=0.100001  50% completed  (50% total)   TestNetwork.clock.oscillator (ConstantDriftOscillator, id=4)
Handling tick, numTicks = 100001.
Oscillator tick processed, clockTime = 0.100002.

%contains: stdout
** Event #200001  t=0.199999  99% completed  (99% total)   TestNetwork.clock.oscillator (ConstantDriftOscillator, id=4)
Handling tick, numTicks = 199999.
Oscillator tick processed, clockTime = 0.299998.
** Event #200002  t=0.2  100% completed  (100% total)   TestNetwork.clock.oscillator (ConstantDriftOscillator, id=4)
Handling tick, numTicks = 200000.
Oscillator tick processed, clockTime = 0.3.
