[General]
sim-time-limit = 300s

# ip settings
**.ip.procDelay = 1us

# NIC configuration
**.eth[*].queue.typename = "EtherQosQueue"
**.eth[*].queue.dataQueue.typename = "DropTailQueue"
**.eth[*].queue.dataQueue.frameCapacity = 100

# BGP settings
**.bgpConfig = xmldoc("config.xml")

description = "BGP example 3 3routers"
network = BGPTest3
fingerprint = 0b94-34b7/tplx
**.scenarioManager.script = xml("<empty/>")

[Config LinkDown]
fingerprint = 6ee1-8d75/tplx
**.scenarioManager.script = xmldoc("scenario1.xml")

[Config LinkDownAndUp]
fingerprint = 6bb2-f314/tplx
**.scenarioManager.script = xmldoc("scenario2.xml")