[General]

#Parameters varied from default: carrier frequency, antenna gains, transmission power, sensitivity

record-eventlog = false
**.vector-recording = false
tkenv-plugin-path = ../../../etc/plugins

sim-time-limit = 200s
################ext settings
network = AdhocNet
# number of hosts
*.netSize = ${size = 2}

# mobility setup
**.mobileHost[*].mobilityType = "StationaryMobility"
**.gwHost*.mobilityType = "StationaryMobility"
**.host*.mobilityType = "StationaryMobility"

**.initFromDisplayString = false
**.mobileHost[*].mobility.initialX=12.5km + (parentIndex() % ${size} + 1) * 25km
**.mobileHost[*].mobility.initialY=12.5km + int(parentIndex() / ${size}) * 25km
**.mobileHost[*].mobility.initialZ=0m

**.gwHost1.mobility.initialX=12.5km
**.gwHost1.mobility.initialY=12.5km
**.gwHost2.mobility.initialX=12.5km + (${size} + 1) * 25km
**.gwHost2.mobility.initialY=12.5km + (${size} - 1) * 25km
**.gwHost*.mobility.initialZ=0m

**.host1.mobility.initialX=6.25km
**.host1.mobility.initialY=6.25km
**.host2.mobility.initialX=18.75km + (${size} + 1) * 25km
**.host2.mobility.initialY=18.75km + (${size} - 1) * 25km
**.host*.mobility.initialZ=0m

#RADIO
**.radio.sensitivity = -85dBm
#**.radio.transmitterPower = 223mW

#Setting Antenna gain
**.radio.TransmissionAntennaGainIndB=27dB
**.radio.ReceiveAntennaGainIndB=27dB

**.radio.TransmiterAntennaHigh=18m
**.radio.ReceiverAntennaHigh=18m

#MAC
**.mac.maxQueueSize = 15
**.bitrate = 54Mbps

**.mobileHost[*].wlan[*].radio.transmitterPower = 0.08mW

# application settings

**.host1.numPingApps = 1
**.host1.pingApp[0].destAddr="host2"
**.host1.pingApp[0].startTime = 0s
**.pingApp[*].printPing = true

# configure routing info
**.mobileHost[*].routingProtocol = "Batman"
**.gwHost*.routingProtocol = "Batman"
**.manetPurgeRoutingTables = true
**.gwHost1.*.announcedNetworks = "10.0.0.0/255.255.255.0"
**.gwHost2.*.announcedNetworks = "30.0.0.0/255.255.255.0"

# configure IPv4 addresses

**.networkConfigurator.config=xmldoc("config-simple.xml")
**.networkConfigurator.assignDisjunctSubnetAddresses = false
**.networkConfigurator.addDefaultRoutes = false
**.networkConfigurator.addStaticRoutes = false
**.networkConfigurator.addSubnetRoutes = false

# configure ChannelControl
**.constraintAreaMinX=0m
**.constraintAreaMinY=0m
**.constraintAreaMinZ=0m
**.constraintAreaMaxX=25km * (${size} + 2)
**.constraintAreaMaxY=25km * ${size}
**.constraintAreaMaxZ=0m
**.channelControl.pMax = 223mW

[Config single_radio]
# number of radios per host
**.mobileHost[*].numRadios = 1
**.gwHost*.numRadios = 1

# number of channels used
**.channelControl.numChannels = 1

# wlan interface - radio channel assignemnt
**.mobileHost[*].wlan[*].radio.channelNumber = 0
**.gwHost*.wlan[*].radio.channelNumber = 0

[Config multi_radio]
# number of radios per host
**.mobileHost[*].numRadios = 2
**.gwHost*.numRadios = 2

# number of channels used
**.channelControl.numChannels = 2

# wlan interface - radio channel assignemnt
**.mobileHost[*].wlan[0].radio.channelNumber = 0
**.mobileHost[*].wlan[1].radio.channelNumber = 1
**.gwHost*.wlan[1].radio.channelNumber = 1

################################################
