[General]
network = ARPTest
ini-warnings = false
#perform-gc = false

warnings = true
sim-time-limit = 500s
cpu-time-limit = 600s
total-stack-kb = 2048 # 2MByte, increase if necessary

tkenv-plugin-path = ../../../Etc/plugins

[Config ARPTest]
# tcp apps
**.numTcpApps = 1
**.client*.tcpAppType = "TCPSessionApp"
**.client*.tcpApp[0].active = true
**.client*.tcpApp[0].address = ""
**.client*.tcpApp[0].port = -1
**.client*.tcpApp[0].connectAddress = "server"
**.client*.tcpApp[0].connectPort = 1000
**.client*.tcpApp[0].tOpen = 1s
**.client*.tcpApp[0].tSend = 1.1s
**.client*.tcpApp[0].sendBytes = 1MB
**.client*.tcpApp[0].sendScript = ""
**.client*.tcpApp[0].tClose = 0

#**.server*.tcpAppType="TCPSinkApp"
**.server*.tcpAppType = "TCPEchoApp"
**.server*.tcpApp[0].address = ""
**.server*.tcpApp[0].port = 1000
**.server*.tcpApp[0].echoFactor = 2.0
**.server*.tcpApp[0].echoDelay = 0

# tcp settings
**.tcp.mss = 1024
**.tcp.advertisedWindow = 14336  # 14*mss
**.tcp.sendQueueClass = "TCPVirtualDataSendQueue"
**.tcp.receiveQueueClass = "TCPVirtualDataRcvQueue"
**.tcp.tcpAlgorithmClass = "TCPReno"
**.tcp.recordStats = true

# ip settings
**.ip.procDelay = 10us
**.routingFile = ""
**.IPForward = false  # Router's is hardwired "true"

# hook names
**.qosBehaviorClass = "EnqueueWithoutQoS"
**.ip.*.procDelay = 0

# ARP configuration
**.networkLayer.proxyARP = true  # Host's is hardwired "false"

# Ethernet NIC configuration
**.eth[*].queueType = "DropTailQueue" # in routers
**.eth[*].queue.frameCapacity = 10  # in routers
**.eth[*].mac.promiscuous = false
**.eth[*].mac.address = "auto"
**.eth[*].mac.txrate = 10Mbps
**.eth[*].mac.duplexEnabled = true

**.apply-default = true

