
[General]
sim-time-limit = 100s
fingerprint = "c64b-ea7f"

include omnetpp.ini
