[General]
network = VsgSignalShowcase
sim-time-limit = 100s
description = "VSG signal propagation tuning (translucent transmission discs, growing wavefronts, moving nodes)"

**.arp.typename = "GlobalArp"

# --- traffic: host1 -> host2 and host3 -> host2 ---
*.host1.numApps = 1
*.host1.app[0].typename = "UdpBasicApp"
*.host1.app[0].destAddresses = "host2"
*.host1.app[0].destPort = 1000
*.host1.app[0].messageLength = 1000byte
*.host1.app[0].sendInterval = 2s
*.host1.app[0].startTime = uniform(0s, 0.5s)
*.host3.numApps = 1
*.host3.app[0].typename = "UdpBasicApp"
*.host3.app[0].destAddresses = "host2"
*.host3.app[0].destPort = 1000
*.host3.app[0].messageLength = 1000byte
*.host3.app[0].sendInterval = 2.3s
*.host2.numApps = 1
*.host2.app[0].typename = "UdpSink"
*.host2.app[0].localPort = 1000

# --- ad-hoc wlan ---
# Very low power so the computed communication/interference range is ~100m
# (free-space: range ~ sqrt(power); 10mW gives ~10km, so scale down by (100/10000)^2 ~ 1e-4).
*.host*.wlan[*].radio.transmitter.power = 0.001mW
*.host*.forwarding = true
*.host*.wlan[*].mgmt.typename = "Ieee80211MgmtAdhoc"
*.host*.wlan[*].agent.typename = ""

# --- cap the range (maxIgnoreNaN takes the max of par and computed, so this is a floor;
#     the low power above makes the computed range small, and this keeps it sane) ---
*.radioMedium.maxCommunicationRange = 100m
*.radioMedium.maxInterferenceRange = 100m

# --- host3 moves slowly, to show transmissions from a moving node ---
*.host3.mobility.typename = "LinearMobility"
*.host3.mobility.speed = 5mps
*.host3.mobility.initialMovementHeading = 30deg
*.host3.mobility.constraintAreaMinX = 30m
*.host3.mobility.constraintAreaMinY = 30m
*.host3.mobility.constraintAreaMinZ = 0m
*.host3.mobility.constraintAreaMaxX = 270m
*.host3.mobility.constraintAreaMaxY = 270m
*.host3.mobility.constraintAreaMaxZ = 0m

# --- VSG 3D visualizer settings ---
*.visualizer.sceneVisualizer.axisLength = 30m
*.visualizer.sceneVisualizer.sceneMinX = 0m
*.visualizer.sceneVisualizer.sceneMinY = 0m
*.visualizer.sceneVisualizer.sceneMaxX = 300m
*.visualizer.sceneVisualizer.sceneMaxY = 300m
*.visualizer.sceneVisualizer.sceneMinZ = 0m
*.visualizer.sceneVisualizer.sceneMaxZ = 0m

*.visualizer.mediumVisualizer.displaySignals = true
*.visualizer.mediumVisualizer.displaySignalDepartures = true
*.visualizer.mediumVisualizer.displaySignalArrivals = true
*.visualizer.mediumVisualizer.displayCommunicationRanges = true

*.visualizer.dataLinkVisualizer.displayLinks = true
*.visualizer.dataLinkVisualizer.fadeOutTime = 2s

*.visualizer.mobilityVisualizer.displayMovementTrails = true
*.visualizer.mobilityVisualizer.animationSpeed = 1