[General]
network = VsgSignalShowcase
sim-time-limit = 100s
description = "VSG signal propagation tuning (translucent transmission discs, growing wavefronts, moving nodes)"

**.arp.typename = "GlobalArp"

# --- traffic: host1 -> host2 and host3 -> host2 (frequent, staggered, so discs
#     and data-link arrows appear often instead of only in brief bursts) ---
*.host1.numApps = 1
*.host1.app[0].typename = "UdpBasicApp"
*.host1.app[0].destAddresses = "host2"
*.host1.app[0].destPort = 1000
*.host1.app[0].messageLength = 1000byte
*.host1.app[0].sendInterval = 1s
*.host1.app[0].startTime = uniform(0s, 1s)   # randomized so transmissions don't coincide
*.host3.numApps = 1
*.host3.app[0].typename = "UdpBasicApp"
*.host3.app[0].destAddresses = "host2"
*.host3.app[0].destPort = 1000
*.host3.app[0].messageLength = 1000byte
*.host3.app[0].sendInterval = 1.3s
*.host2.numApps = 1
*.host2.app[0].typename = "UdpSink"
*.host2.app[0].localPort = 1000

# --- ad-hoc wlan ---
# The three hosts sit in a tight cluster (~30m apart) and use enough transmit power (0.05mW) that
# their frames reliably DECODE at that spacing -- that reception is what makes the data-link
# visualizer draw connection arrows. (The disc size is NOT tied to this power: the medium visualizer
# caps the disc to signalFadingDistance below, so raising power for a real link does not blow up the
# disc.)
*.host*.wlan[*].radio.transmitter.power = 0.05mW
*.host*.forwarding = true
*.host*.wlan[*].mgmt.typename = "Ieee80211MgmtAdhoc"
*.host*.wlan[*].agent.typename = ""

# --- host3 drifts slowly around the cluster, staying within communication range of the
#     other two (so its transmissions are received and its arrows also appear) ---
*.host3.mobility.typename = "LinearMobility"
*.host3.mobility.speed = 3mps
*.host3.mobility.initialX = 150m
*.host3.mobility.initialY = 135m
*.host3.mobility.initialMovementHeading = 30deg
*.host3.mobility.constraintAreaMinX = 130m
*.host3.mobility.constraintAreaMinY = 120m
*.host3.mobility.constraintAreaMinZ = 0m
*.host3.mobility.constraintAreaMaxX = 170m
*.host3.mobility.constraintAreaMaxY = 165m
*.host3.mobility.constraintAreaMaxZ = 0m

# --- VSG 3D visualizer settings ---
*.visualizer.sceneVisualizer.axisLength = 30m
*.visualizer.sceneVisualizer.sceneMinX = 0m
*.visualizer.sceneVisualizer.sceneMinY = 0m
*.visualizer.sceneVisualizer.sceneMaxX = 300m
*.visualizer.sceneVisualizer.sceneMaxY = 300m
*.visualizer.sceneVisualizer.sceneMinZ = 0m
*.visualizer.sceneVisualizer.sceneMaxZ = 0m

*.visualizer.mediumVisualizer.displaySignals = true
*.visualizer.mediumVisualizer.displaySignalDepartures = true
*.visualizer.mediumVisualizer.displaySignalArrivals = true
*.visualizer.mediumVisualizer.displayCommunicationRanges = true
# Disc size is governed by the fade, not the transmit power: the disc is drawn out to where the
# distance fade makes it invisible. signalFadingDistance=15m -> a ~145m disc that fits this scene.
*.visualizer.mediumVisualizer.signalFadingDistance = 15m
*.visualizer.mediumVisualizer.signalWaveLength = 40m
# Stretch each (light-speed, sub-microsecond) propagation over ~2s of animation so
# the discs are watchable rather than a brief flash. Raise this to slow them further.
*.visualizer.mediumVisualizer.signalPropagationAnimationTime = 2s

*.visualizer.dataLinkVisualizer.displayLinks = true
*.visualizer.dataLinkVisualizer.fadeOutTime = 2s

*.visualizer.mobilityVisualizer.displayMovementTrails = true
*.visualizer.mobilityVisualizer.animationSpeed = 1