[General]
network = TimeSynchronizationShowcase
sim-time-limit = 1s
description = "abstract"
#abstract-config = true (requires omnet 7)

# all oscillators have a constant drift rate (specified with a random distribution for each one) 
# except for the master clocks, which have a random drift rate
**.tsnClock*.clock.oscillator.typename = "RandomDriftOscillator"
**.oscillator.changeInterval = 12.5ms
**.oscillator.driftRate = uniform(-100ppm, 100ppm)
**.oscillator.driftRateChange = uniform(-1ppm, 1ppm)
**.oscillator.driftRateChangeUpperLimit = 100ppm
**.oscillator.driftRateChangeLowerLimit = -100ppm

# all Ethernet interfaces have 100 Mbps speed
*.*.eth[*].bitrate = 100Mbps

*.visualizer.typename = "IntegratedMultiCanvasVisualizer"
*.visualizer.infoVisualizer[*].displayInfos = true

[Config ClockDrift]
*.*.hasGptp = false
*.*.hasTimeSynchronization = false

[Config TimeSynchronization]
description = "Basic tree topology with one master clock"

# enable time synchronization in all network nodes
*.*.hasTimeSynchronization = true

# Uncomment these lines to test out of band time synchronization using the SimpleClockSynchronizer instead of gPTP
#*.tsnClock.gptp.typename = ""
#*.*.gptp.typename = "SimpleClockSynchronizer"
#*.*.gptp.synchronizationInterval = 0.125s
#*.*.gptp.masterClockModule = "^.^.tsnClock.clock"
#*.*.gptp.slaveClockModule = "^.clock"

# TSN clock gPTP master ports
*.tsnClock.gptp.masterPorts = ["eth0"]

# TSN switch gPTP bridge master ports
*.tsnSwitch.gptp.masterPorts = ["eth1", "eth2"]

# Set all reference clocks to master clock so the time difference can be visualized
**.referenceClock = "tsnClock.clock"

# data link visualizer displays gPTP time synchronization packets
*.visualizer.dataLinkVisualizer[0].displayLinks = true
*.visualizer.dataLinkVisualizer[0].activityLevel = "protocol"
*.visualizer.dataLinkVisualizer[0].packetFilter = "GptpSync"
*.visualizer.dataLinkVisualizer[0].lineColor = "blue2"

*.visualizer.numInfoVisualizers = 3
*.visualizer.infoVisualizer[0].modules = "*.tsnClock.clock"
*.tsnClock.clock.displayStringTextFormat = "time: %T"
*.visualizer.infoVisualizer[1].modules = "*.tsnSwitch.clock"
*.visualizer.infoVisualizer[1].placementHint = "topLeft"
*.visualizer.infoVisualizer[2].modules = "*.tsnDevice*.clock"
*.visualizer.infoVisualizer[2].placementHint = "bottom"
*.tsnDevice*.clock.displayStringTextFormat = "diff: %d"
*.tsnSwitch.clock.displayStringTextFormat = "diff: %d"
