<?xml version="1.0"?>
<!-- 
194 Cars leaving the Computer Science Building and campus of the University of Erlangen-Nuremberg
Copyright (C) 2008 Christoph Sommer <christoph.sommer@informatik.uni-erlangen.de>
Licensed under the Creative Commons Attribution-ShareAlike 2.0 license <http://creativecommons.org/licenses/by-sa/2.0/>
-->
<routes>
   <vType id="vtype0" accel="2.6" decel="4.5" sigma="0.5" length="2.5" minGap="2.5" maxSpeed="14" color="1,1,0"/>
   <route id="route0" edges="23360303 -54452041 -54452040 -40066681 23339459 44009481 49007313 59316120 59316121 59316122 59316123 -4047343 40067020 49000430 4900044"/>
   <route id="route1" edges="23360301 -54452042 -54452041 -54452040 -40066681 23339459 44009481 49007313 59316120 59316121 59316122 59316123 -4047343 40067020 49000430 4900044"/>
   <route id="route2" edges="23360302 -54452043 -54452042 -54452041 -54452040 -40066681 23339459 44009481 49007313 59316120 59316121 59316122 59316123 -4047343 40067020 49000430 4900044"/>
   <flow id="flow0" type="vtype0" route="route0" begin="0" period="9" number="65"/>
   <flow id="flow1" type="vtype0" route="route1" begin="3" period="9" number="65"/>
   <flow id="flow2" type="vtype0" route="route2" begin="6" period="9" number="65"/>
</routes>
