#
# MLDv1 demonstration scenario: IPv6 host listeners join a multicast group
# (ff0e::1), the Router6 querier sends periodic General Listener Queries, one
# host leaves the group triggering an MLD Done -> Multicast-Address-Specific
# Query sequence.
#
# Run command (from this directory):
#   inet -u Cmdenv -f omnetpp.ini -c MldDemo -r 0
#
# Expected EV markers in the Cmdenv log:
#   "sending Multicast Listener Report for group=ff0e::1 on iface="  (host join)
#   "recorded listener for group=ff0e::1"                            (router records)
#   "sending General Listener Query on iface="                       (router periodic query)
#   "received General Listener Query on iface="                      (host sees query)
#   "sending Multicast Listener Done for group=ff0e::1 on iface="    (host2 leave)
#   "received Multicast Listener Done for group=ff0e::1"             (router sees done)
#   "sending Multicast-Address-Specific Query for group=ff0e::1"     (router MAS query)
#

[General]
network = MldDemo

# Run for 30s: enough for join -> General Query -> Done -> MAS Query cycle
sim-time-limit = 30s

[Config MldDemo]
description = "MLDv1 listener + querier demo"

# Enable MLD on all nodes: hosts become listeners, router becomes querier
**.ipv6.hasMld = true

# Disable DAD for fast deterministic startup (eliminates ~1s+ delay per address)
**.neighbourDiscovery.dupAddrDetectTransmits = 0

# Activate the querier on the router.
# MUST be set at the node (Router6) level: NetworkLayerNodeBase propagates
#   *.multicastForwarding = this.multicastForwarding
# to all submodules (including ipv6.routingTable), overriding any per-submodule setting.
**.router.multicastForwarding = true

# Router timing: short startupQueryInterval so the General Query fires before host2 leaves.
# queryInterval is long so only one periodic Query fires in the 30s window.
**.router.ipv6.mld.startupQueryInterval = 2s
**.router.ipv6.mld.queryInterval = 100s
**.router.ipv6.mld.queryResponseInterval = 1s
# lastListenerQueryInterval=1s, lastListenerQueryCount=2: leave countdown = 2s.
**.router.ipv6.mld.lastListenerQueryInterval = 1s
**.router.ipv6.mld.lastListenerQueryCount = 2
# multicastListenerInterval=10s: listener entry stays alive well past the join time
# so it is present when host2 leaves at t=10s.
**.router.ipv6.mld.multicastListenerInterval = 10s

# host1: persistent listener; joins ff0e::1 and stays for the whole simulation.
# Socket join fires ipv6MulticastGroupJoinedSignal -> Mldv1 sends unsolicited Report.
**.host1.numApps = 1
**.host1.app[0].typename = "UdpSink"
**.host1.app[0].localPort = 1000
**.host1.app[0].multicastGroup = "ff0e::1"

# host2: transient listener; joins ff0e::1 at t=0 and leaves at t=10s.
# Socket close at stopTime fires ipv6MulticastGroupLeftSignal -> Mldv1 sends Done.
# The router receives the Done and sends a Multicast-Address-Specific Query for ff0e::1.
**.host2.numApps = 1
**.host2.app[0].typename = "UdpSink"
**.host2.app[0].localPort = 1000
**.host2.app[0].multicastGroup = "ff0e::1"
**.host2.app[0].stopTime = 10s

# sender: optional UdpBasicApp sending data to ff0e::1 to show data delivery to listeners.
# timeToLive=10 so the router can forward (hop limit > 1 required for forwarding).
# Sends start at t=5s (after addresses are settled and listeners are registered).
**.sender.numApps = 1
**.sender.app[0].typename = "UdpBasicApp"
**.sender.app[0].destAddresses = "ff0e::1"
**.sender.app[0].destPort = 1000
**.sender.app[0].messageLength = 64B
**.sender.app[0].timeToLive = 10
**.sender.app[0].startTime = 5s
**.sender.app[0].sendInterval = 2s
**.sender.app[0].stopTime = 25s

# Ethernet queue configuration (mirrors MLD module test settings)
**.eth[*].queue.typename = "EthernetQosQueue"
**.eth[*].queue.dataQueue.typename = "DropTailQueue"
**.eth[*].queue.dataQueue.packetCapacity = 10

[Config MldV2Ssm]
description = "MLDv2 source-specific multicast (SSM): a receiver subscribes to one source only"
#
# Demonstrates MLDv2 (RFC 3810) source-specific multicast. Two sources send to the same
# SSM group ff3e::8 (the FF3E::/32 range is reserved for SSM); the receiver subscribes in
# INCLUDE mode to source S1 only, so MLDv2 carries an INCLUDE{S1} membership and the
# receiver's filter never admits S2.
#
# Run command (from this directory):
#   inet -u Cmdenv -f omnetpp.ini -c MldV2Ssm -r 0
#
# Expected EV markers:
#   host1 (receiver):  a State-Change Report with an ALLOW (or CHANGE_TO_INCLUDE) record
#                      naming S1, i.e. INCLUDE(<S1 address>)
#   router (querier):  "Received ALLOW(<S1 address>)" and a source-specific listener entry
#
sim-time-limit = 30s

# Enable MLD and select MLDv2 (the submodule defaults to Mldv1).
**.ipv6.hasMld = true
**.ipv6.mld.typename = "Mldv2"

# Fast deterministic startup, and activate the querier on the router (node-level, see above).
**.neighbourDiscovery.dupAddrDetectTransmits = 0
**.router.multicastForwarding = true
**.router.ipv6.mld.startupQueryInterval = 2s
**.router.ipv6.mld.queryInterval = 100s
**.router.ipv6.mld.queryResponseInterval = 1s

# Source S1 = the 'sender' node; Source S2 = the 'host2' node. Both send to ff3e::8.
**.sender.numApps = 1
**.sender.app[0].typename = "UdpBasicApp"
**.sender.app[0].destAddresses = "ff3e::8"
**.sender.app[0].destPort = 1000
**.sender.app[0].messageLength = 64B
**.sender.app[0].timeToLive = 10
**.sender.app[0].startTime = 5s
**.sender.app[0].sendInterval = 2s
**.sender.app[0].stopTime = 25s

**.host2.numApps = 1
**.host2.app[0].typename = "UdpBasicApp"
**.host2.app[0].destAddresses = "ff3e::8"
**.host2.app[0].destPort = 1000
**.host2.app[0].messageLength = 64B
**.host2.app[0].timeToLive = 10
**.host2.app[0].startTime = 6s
**.host2.app[0].sendInterval = 2s
**.host2.app[0].stopTime = 25s

# host1 = SSM receiver: subscribe to ff3e::8 but only from source S1 ('sender'), so MLDv2
# joins in INCLUDE mode and the receiver gets S1's stream but never S2's.
#
# The source is the 'sender' node's *global* address (the Ipv6FlatNetworkConfigurator
# assigns the aaaa:0:65::/64 prefix; sender is the 4th IPv6 node -> interface id ::4). It
# is hardcoded rather than resolved with "sender(ipv6)" because the resolver returns the
# link-local address (fe80::...), whereas S1 sources its global-scope ff3e:: traffic from
# the global address -- an INCLUDE filter naming the link-local would match nothing.
**.host1.numApps = 1
**.host1.app[0].typename = "UdpSink"
**.host1.app[0].localPort = 1000
**.host1.app[0].multicastGroup = "ff3e::8"
**.host1.app[0].multicastSources = "aaaa:0:65:0:8aa:ff:fe00:4"

# Ethernet queue configuration
**.eth[*].queue.typename = "EthernetQosQueue"
**.eth[*].queue.dataQueue.typename = "DropTailQueue"
**.eth[*].queue.dataQueue.packetCapacity = 10
