[General]
network = MeasurementRelationshipsShowcase
sim-time-limit = 1s
