[General]
network = ProtocolTestDemo
sim-time-limit = 0.5s

# Deterministic: fixed seed, no randomness needed here.
seed-set = 0

# host1: periodic UDP traffic to host2
*.host1.numApps = 1
*.host1.app[0].typename = "UdpBasicApp"
*.host1.app[0].destAddresses = "host2"
*.host1.app[0].destPort = 5000
*.host1.app[0].localPort = 4000
*.host1.app[0].messageLength = 100B
*.host1.app[0].sendInterval = 0.2s
*.host1.app[0].startTime = 0.1s

# host2: UDP sink
*.host2.numApps = 1
*.host2.app[0].typename = "UdpSink"
*.host2.app[0].localPort = 5000
