#
# This ini file runs Telnet sessions on the NClients network, using
# TelnetApp+TcpGenericServerApp.
#
# See also fileTransfer.ini and basicHTTP.ini for different kinds of
# network traffic.
#

[Config ETH]
network = NClientsEth


[Config PPP]
network = NClientsPPP

[General]
sim-time-limit = 168h

# number of client computers
*.n = 1

# configurator
*.configurator.useTentativeAddrs = false # FIXME TBD to be switched to true, for testing DAD!

# tcp apps
#**.cli[*].numApps = 1
#**.cli[*].app[*].typename = "TelnetApp"
#**.cli[0].app[0].localAddress = "aaaa:b::8aa:ff:fe00:7" #is this the source addr of the client's TCP app?
#**.cli[1].app[0].localAddress = "aaaa:b::8aa:ff:fe00:8"
#**.cli[0].app[0].localPort = -1
#**.cli[1].app[0].localPort = -1
#**.cli[*].app[0].connectAddress = "srv"
##**.cli[*].app[0].connectAddress="bbbb::"
#**.cli[0].app[0].connectPort = 1000 #same destination port numbers
#**.cli[1].app[0].connectPort = 1000 #same destination port numbers
#
#**.cli[*].app[0].startTime = 3s
#**.cli[*].app[0].numCommands = 1
#**.cli[*].app[0].commandLength = 10B
#**.cli[*].app[0].keyPressDelay = 0.1s
#**.cli[*].app[0].commandOutputLength = 40B
#**.cli[*].app[0].thinkTime = 2s
#**.cli[*].app[0].idleInterval = 12s
#**.cli[*].app[0].reconnectInterval = 3s

#**.cli[*].app[0].startTime = uniform(10s,15s)
#**.cli[*].app[0].numCommands = int(exponential(1))
#**.cli[*].app[0].commandLength = intWithUnit(exponential(1B))
#**.cli[*].app[0].keyPressDelay = exponential(0.1s)
#**.cli[*].app[0].commandOutputLength = intWithUnit(exponential(40B))
#**.cli[*].app[0].thinkTime = truncnormal(2s,3s)
#**.cli[*].app[0].idleInterval = truncnormal(3600s,1200s)
#**.cli[*].app[0].reconnectInterval = 30s

# tcp apps
**.cli[*].numApps = 1
**.cli[*].app[*].typename = "TelnetApp"
**.cli[*].app[0].localAddress = ""
**.cli[*].app[0].localPort = -1
**.cli[*].app[0].connectAddress = "srv"
**.cli[*].app[0].connectPort = 1000

**.cli[*].app[0].startTime = 15s + exponential(5s)
**.cli[*].app[0].numCommands = int(exponential(10))
**.cli[*].app[0].commandLength = intWithUnit(exponential(10B))
**.cli[*].app[0].keyPressDelay = exponential(0.1s)
**.cli[*].app[0].commandOutputLength = intWithUnit(exponential(40B))
**.cli[*].app[0].thinkTime = truncnormal(2s,3s)
**.cli[*].app[0].idleInterval = truncnormal(3600s,1200s)
**.cli[*].app[0].reconnectInterval = 30s
**.cli[*].app[0].dataTransferMode = "object"

**.srv.numApps = 1
**.srv.app[*].typename = "TcpGenericServerApp"
**.srv.app[0].localAddress = ""
**.srv.app[0].localPort = 1000
**.srv.app[0].replyDelay = 0s

# tcp settings
**.app[*].dataTransferMode = "object"

# Ppp NIC configuration
**.ppp[*].ppp.queue.typename = "DropTailQueue" # in routers
**.ppp[*].ppp.queue.packetCapacity = 10  # in routers

# Ethernet NIC configuration
**.eth[*].mac.queue.typename = "EtherQosQueue"
**.eth[*].mac.queue.dataQueue.typename = "DropTailQueue" # in routers
**.eth[*].mac.queue.dataQueue.packetCapacity = 10  # in routers

#**.eth[*].mac.txrate = 10Mbps
**.eth[*].mac.duplexMode = true

# ADDED by WEI for testing purposes
#**.cli[0].eth[0].address = "0A-AA-00-00-00-01"
#**.srv.eth[0].address = "0A-AA-00-00-00-02"
#**.r1.eth[0].address = "0A-AA-00-00-00-03"
#**.r1.eth[1].address = "0A-AA-00-00-00-04"
#**.r2.eth[0].address = "0A-AA-00-00-00-04"
#**.r2.eth[1].address = "0A-AA-00-00-00-06"
#**.r3.eth[0].address = "0A-AA-00-00-00-07"
#**.r3.eth[1].address = "0A-AA-00-00-00-08"

